Untitled_307
  SciTegic11182514132D

 30 32  0  0  0  0            999 V2000
   36.2500   -8.3667    0.0000 C   0  0  2  0  0  0
   36.9645   -7.9542    0.0000 C   0  0
   35.5355   -7.9542    0.0000 C   0  0
   34.8211   -8.3667    0.0000 N   0  0
   35.5355   -7.1292    0.0000 O   0  0
   37.6789   -8.3667    0.0000 N   0  0
   38.3934   -7.9542    0.0000 C   0  0
   37.6789   -9.1917    0.0000 O   0  0
   38.3934   -7.1292    0.0000 O   0  0
   36.2507   -9.1916    0.0000 C   0  0
   35.5757   -9.6665    0.0000 C   0  0
   34.7930   -9.3992    0.0000 C   0  0
   34.2982  -10.0593    0.0000 C   0  0
   34.7731  -10.7340    0.0000 C   0  0
   35.5614  -10.4907    0.0000 C   0  0
   34.0635   -8.0294    0.0000 C   0  0  1  0  0  0
   33.5114   -8.6425    0.0000 C   0  0
   33.9240   -9.3570    0.0000 C   0  0
   34.7309   -9.1853    0.0000 C   0  0
   33.8919   -7.2224    0.0000 C   0  0
   34.5050   -6.6704    0.0000 O   0  0
   33.1073   -6.9674    0.0000 N   0  0
   32.9358   -6.1605    0.0000 C   0  0
   32.1512   -5.9055    0.0000 C   0  0
   33.5489   -5.6084    0.0000 O   0  0
   31.9836   -5.0980    0.0000 C   0  0
   31.1998   -4.8430    0.0000 C   0  0
   30.5857   -5.3953    0.0000 C   0  0
   30.7608   -6.2059    0.0000 C   0  0
   31.5443   -6.4571    0.0000 C   0  0
 15 11  1  0
 16  4  1  0
  6  8  1  0
  7  9  2  0
  3  5  2  0
 16 17  1  0
 17 18  1  0
 18 19  1  0
 19  4  1  0
  1 10  1  1
 16 20  1  1
  1  3  1  0
 20 21  2  0
 10 11  1  0
 20 22  1  0
 11 12  1  0
 22 23  1  0
  2  6  1  0
 23 24  1  0
  1  2  1  0
 23 25  2  0
  6  7  1  0
 24 26  2  0
  3  4  1  0
 26 27  1  0
 12 13  1  0
 27 28  2  0
 13 14  1  0
 28 29  1  0
 14 15  1  0
 29 30  2  0
 30 24  1  0
M  END
> <Name>
Untitled_307

> <OBJECTID>
9223372307440992267

> <From>
www.bindingDB.org

> <BindingDB Reactant_set_id>
50935679

> <Ligand InChI>
InChI=1S/C22H29N3O5/c26-15-24(30)14-18(13-16-7-4-5-8-16)22(29)25-12-6-11-19(25)21(28)23-20(27)17-9-2-1-3-10-17/h1-3,9-10,15-16,18-19,30H,4-8,11-14H2,(H,23,27,28)/t18-,19+/m1/s1

> <Ligand InChI Key>
JPSWIPZHYDYDLN-MOPGFXCFSA-N

> <BindingDB MonomerID>
50383982

> <BindingDB Ligand Name>
CHEMBL2032119

> <Target Name>
Peptide deformylase

> <Target Source Organism According to Curator or DataSource>
Staphylococcus aureus

> <Ki (nM)>
nan

> <IC50 (nM)>
5.2

> <Kd (nM)>
nan

> <EC50 (nM)>
nan

> <kon (M-1-s-1)>
nan

> <koff (s-1)>
nan

> <pH>
nan

> <Temp C>
nan

> <Curation/DataSource>
ChEMBL

> <Article DOI>
10.1016/j.bmcl.2012.04.086

> <BindingDB Entry DOI>
10.7270/Q2K64K3V

> <PMID>
22579486

> <PubChem AID>
<NA>

> <Patent Number>
nan

> <Authors>
Axten, JM; Medina, JR; Blackledge, CW; Duquenne, C; Grant, SW; Bobko, MA; Peng, T; Miller, WH; Pinckney, T; Gallagher, TF; Kulkarni, S; Lewandowski, T; Van Aller, GS; Zonis, R; Ward, P; Campobasso, N

> <Date of publication>
5/29/2012

> <Date in BindingDB>
2/7/2013

> <Institution>
GlaxoSmithKline

> <Link to Ligand in BindingDB>
http://www.bindingdb.org/bind/chemsearch/marvin/MolStructure.jsp?monomerid=50383982

> <Link to Ligand-Target Pair in BindingDB>
http://www.bindingdb.org/jsp/dbsearch/PrimarySearch_ki.jsp?energyterm=kJ/mole&tag=r21&monomerid=50383982&enzyme=Peptide+deformylase&column=ki&startPg=0&Increment=50&submit=Search

> <Ligand HET ID in PDB>
0S5

> <PDB ID(s) for Ligand-Target Complex>
4EOX

> <PubChem CID of Ligand>
16035825

> <PubChem SID of Ligand>
160863065

> <ChEBI ID of Ligand>
nan

> <ChEMBL ID of Ligand>
CHEMBL2032119

> <DrugBank ID of Ligand>
<NA>

> <IUPHAR_GRAC ID of Ligand>
nan

> <KEGG ID of Ligand>
<NA>

> <ZINC ID of Ligand>
ZINC34873861

> <Number of Protein Chains in Target (bigger than 1 implies a multichain complex)>
1

> <BindingDB Target Chain Sequence>
MLTMKDIIRD GHPTLRQKAA ELELPLTKEE KETLIAMREF LVNSQDEEIA
KRYGLRSGVG LAAPQINISK RMIAVLIPDD GSGKSYDYML VNPKIVSHSV
QEAYLPTGEG CLSVDDNVAG LVHRHNRITI KAKDIEGNDI QLRLKGYPAI
VFQHEIDHLN GVMFYDHIDK NHPLQPHTDA VEV

> <PDB ID(s) of Target Chain>
1LM4,1LMH,1LQW,2AI9,6JFG,6JFO,6JFQ,6JFR,6JFS

> <UniProt (SwissProt) Recommended Name of Target Chain>
Peptide deformylase

> <UniProt (SwissProt) Entry Name of Target Chain>
DEF_STAAM

> <UniProt (SwissProt) Primary ID of Target Chain>
P68825

> <UniProt (SwissProt) Secondary ID(s) of Target Chain>
Q9F4L4

> <UniProt (SwissProt) Alternative ID(s) of Target Chain>
nan

> <UniProt (TrEMBL) Submitted Name of Target Chain>
<NA>

> <UniProt (TrEMBL) Entry Name of Target Chain>
<NA>

> <UniProt (TrEMBL) Primary ID of Target Chain>
<NA>

> <UniProt (TrEMBL) Secondary ID(s) of Target Chain>
nan

> <UniProt (TrEMBL) Alternative ID(s) of Target Chain>
nan

> <pIC50>
-0.716

> <Num_H_Donors_Lipinski>
2

> <Num_H_Acceptors_Lipinski>
8

> <Molecular_Weight>
415.48276

> <ALogP>
2.093

> <Num_RotatableBonds>
7

> <Molecular_PolarSurfaceArea>
107.02

> <Num_H_Acceptors>
5

> <Num_H_Donors>
2

> <Num_Rings>
3

> <Num_AromaticRings>
1

> <Molecular_FractionalPolarSurfaceArea>
0.267

> <Activity_Bin>
7

> <PLSTempModel>
-0.859559140220625

> <PLSTempModel_Residuals>
0.143559140220625

$$$$
Untitled_188
  SciTegic11182514132D

 33 35  0  0  0  0            999 V2000
   34.3000  -15.0500    0.0000 C   0  0  2  0  0  0
   35.0145  -14.6375    0.0000 C   0  0
   33.5855  -14.6375    0.0000 C   0  0
   32.8711  -15.0500    0.0000 N   0  0
   33.5855  -13.8125    0.0000 O   0  0
   35.7289  -15.0500    0.0000 N   0  0
   36.4434  -14.6375    0.0000 C   0  0
   35.7289  -15.8750    0.0000 O   0  0
   36.4434  -13.8125    0.0000 O   0  0
   34.3007  -15.8749    0.0000 C   0  0
   33.6257  -16.3499    0.0000 C   0  0
   32.8430  -16.0825    0.0000 C   0  0
   32.3482  -16.7426    0.0000 C   0  0
   32.8231  -17.4173    0.0000 C   0  0
   33.6114  -17.1740    0.0000 C   0  0
   32.1135  -14.7127    0.0000 C   0  0  1  0  0  0
   31.5614  -15.3258    0.0000 C   0  0
   31.9740  -16.0403    0.0000 C   0  0
   32.7809  -15.8687    0.0000 C   0  0
   31.9419  -13.9057    0.0000 C   0  0
   32.5550  -13.3537    0.0000 O   0  0
   31.1573  -13.6508    0.0000 N   0  0
   30.9858  -12.8438    0.0000 C   0  0
   31.5989  -12.2918    0.0000 O   0  0
   30.2012  -12.5889    0.0000 N   0  0
   30.0297  -11.7819    0.0000 C   0  0
   30.6427  -11.2299    0.0000 C   0  0
   30.4712  -10.4229    0.0000 C   0  0
   31.0857   -9.8739    0.0000 C   0  0
   30.9147   -9.0676    0.0000 N   0  0
   30.1294   -8.8119    0.0000 C   0  0
   29.5149   -9.3688    0.0000 C   0  0
   29.6891  -10.1730    0.0000 N   0  0
  7  9  2  0
  3  5  2  0
 16 17  1  0
 17 18  1  0
 18 19  1  0
 19  4  1  0
  1 10  1  1
 16 20  1  1
  1  3  1  0
 20 21  2  0
 10 11  1  0
 20 22  1  0
 11 12  1  0
 22 23  1  0
  2  6  1  0
 23 24  2  0
  1  2  1  0
 23 25  1  0
  6  7  1  0
 25 26  1  0
  3  4  1  0
 26 27  1  0
 12 13  1  0
 27 28  1  0
 13 14  1  0
 28 29  2  0
 14 15  1  0
 29 30  1  0
 15 11  1  0
 30 31  2  0
 16  4  1  0
 31 32  1  0
  6  8  1  0
 32 33  2  0
 33 28  1  0
M  END
> <Name>
Untitled_188

> <OBJECTID>
9223372109872496651

> <From>
www.bindingDB.org

> <BindingDB Reactant_set_id>
50935665

> <Ligand InChI>
InChI=1S/C22H32N6O5/c29-15-27(33)14-17(12-16-4-1-2-5-16)21(31)28-11-3-6-19(28)20(30)26-22(32)25-8-7-18-13-23-9-10-24-18/h9-10,13,15-17,19,33H,1-8,11-12,14H2,(H2,25,26,30,32)/t17-,19+/m1/s1

> <Ligand InChI Key>
VZDZRBPANNWEDI-MJGOQNOKSA-N

> <BindingDB MonomerID>
50383969

> <BindingDB Ligand Name>
CHEMBL2032143

> <Target Name>
Peptide deformylase

> <Target Source Organism According to Curator or DataSource>
Streptococcus pneumoniae serotype 4 (strain ATCC BAA-334 / TIGR4)

> <Ki (nM)>
nan

> <IC50 (nM)>
0.41

> <Kd (nM)>
nan

> <EC50 (nM)>
nan

> <kon (M-1-s-1)>
nan

> <koff (s-1)>
nan

> <pH>
nan

> <Temp C>
nan

> <Curation/DataSource>
ChEMBL

> <Article DOI>
10.1016/j.bmcl.2012.04.086

> <BindingDB Entry DOI>
10.7270/Q2K64K3V

> <PMID>
22579486

> <PubChem AID>
<NA>

> <Patent Number>
nan

> <Authors>
Axten, JM; Medina, JR; Blackledge, CW; Duquenne, C; Grant, SW; Bobko, MA; Peng, T; Miller, WH; Pinckney, T; Gallagher, TF; Kulkarni, S; Lewandowski, T; Van Aller, GS; Zonis, R; Ward, P; Campobasso, N

> <Date of publication>
5/29/2012

> <Date in BindingDB>
2/7/2013

> <Institution>
GlaxoSmithKline

> <Link to Ligand in BindingDB>
http://www.bindingdb.org/bind/chemsearch/marvin/MolStructure.jsp?monomerid=50383969

> <Link to Ligand-Target Pair in BindingDB>
http://www.bindingdb.org/jsp/dbsearch/PrimarySearch_ki.jsp?energyterm=kJ/mole&tag=r21&monomerid=50383969&enzyme=Peptide+deformylase&column=ki&startPg=0&Increment=50&submit=Search

> <Ligand HET ID in PDB>
<NA>

> <PDB ID(s) for Ligand-Target Complex>
<NA>

> <PubChem CID of Ligand>
16035189

> <PubChem SID of Ligand>
160863052

> <ChEBI ID of Ligand>
nan

> <ChEMBL ID of Ligand>
CHEMBL2032143

> <DrugBank ID of Ligand>
<NA>

> <IUPHAR_GRAC ID of Ligand>
nan

> <KEGG ID of Ligand>
<NA>

> <ZINC ID of Ligand>
ZINC34873201

> <Number of Protein Chains in Target (bigger than 1 implies a multichain complex)>
1

> <BindingDB Target Chain Sequence>
MSAIERITKAAHLIDMNDIIREGNPTLRAIAEEVTFPLSDQEIILGEKMMQFLKHSQDPVMAEKMGLRGGVGLAAPQLDISKRIIAVLVPNIVEEGETPQEAYDLEAIMYNPKIVSHSVQDAALGEGEGCLSVDRNVPGYVVRHARVTVDYFDKDGEKHRIKLKGYNSIVVQHEIDHINGIMFYDRINEKDPFAVKDGLL
ILE

> <PDB ID(s) of Target Chain>
<NA>

> <UniProt (SwissProt) Recommended Name of Target Chain>
Peptide deformylase

> <UniProt (SwissProt) Entry Name of Target Chain>
DEF_STRPN

> <UniProt (SwissProt) Primary ID of Target Chain>
Q9F2F0

> <UniProt (SwissProt) Secondary ID(s) of Target Chain>
<NA>

> <UniProt (SwissProt) Alternative ID(s) of Target Chain>
nan

> <UniProt (TrEMBL) Submitted Name of Target Chain>
<NA>

> <UniProt (TrEMBL) Entry Name of Target Chain>
<NA>

> <UniProt (TrEMBL) Primary ID of Target Chain>
<NA>

> <UniProt (TrEMBL) Secondary ID(s) of Target Chain>
nan

> <UniProt (TrEMBL) Alternative ID(s) of Target Chain>
nan

> <pIC50>
0.3872

> <Num_H_Donors_Lipinski>
3

> <Num_H_Acceptors_Lipinski>
11

> <Molecular_Weight>
460.52668

> <ALogP>
0.17

> <Num_RotatableBonds>
9

> <Molecular_PolarSurfaceArea>
144.82

> <Num_H_Acceptors>
7

> <Num_H_Donors>
3

> <Num_Rings>
3

> <Num_AromaticRings>
1

> <Molecular_FractionalPolarSurfaceArea>
0.32

> <Activity_Bin>
9

> <PLSTempModel>
0.101042306139588

> <PLSTempModel_Residuals>
0.286157693860412

$$$$
Untitled_231
  SciTegic11182514132D

 31 33  0  0  0  0            999 V2000
    8.8167  -24.4083    0.0000 C   0  0  2  0  0  0
    9.5311  -23.9958    0.0000 C   0  0
    8.1022  -23.9958    0.0000 C   0  0
    7.3877  -24.4083    0.0000 N   0  0
    8.1022  -23.1708    0.0000 O   0  0
   10.2456  -24.4083    0.0000 N   0  0
   10.9601  -23.9958    0.0000 C   0  0
   10.2456  -25.2333    0.0000 O   0  0
   10.9601  -23.1708    0.0000 O   0  0
    8.8173  -25.2333    0.0000 C   0  0
    8.1424  -25.7082    0.0000 C   0  0
    7.3597  -25.4408    0.0000 C   0  0
    6.8648  -26.1009    0.0000 C   0  0
    7.3397  -26.7756    0.0000 C   0  0
    8.1280  -26.5323    0.0000 C   0  0
    6.6301  -24.0710    0.0000 C   0  0  1  0  0  0
    6.0781  -24.6841    0.0000 C   0  0
    6.4906  -25.3986    0.0000 C   0  0
    7.2975  -25.2270    0.0000 C   0  0
    6.4586  -23.2641    0.0000 C   0  0
    7.0717  -22.7120    0.0000 O   0  0
    5.6740  -23.0091    0.0000 N   0  0
    5.5025  -22.2021    0.0000 C   0  0
    6.1156  -21.6501    0.0000 O   0  0
    4.7178  -21.9472    0.0000 O   0  0
    4.5463  -21.1402    0.0000 C   0  0
    5.1596  -20.5914    0.0000 C   0  0
    4.9907  -19.7876    0.0000 C   0  0
    4.2071  -19.5285    0.0000 C   0  0
    3.5920  -20.0797    0.0000 C   0  0
    3.7605  -20.8900    0.0000 C   0  0
 16  4  1  0
  6  8  1  0
  7  9  2  0
  3  5  2  0
 16 17  1  0
 17 18  1  0
 18 19  1  0
 19  4  1  0
  1 10  1  1
 16 20  1  1
  1  3  1  0
 20 21  2  0
 10 11  1  0
 20 22  1  0
 11 12  1  0
 22 23  1  0
  2  6  1  0
 23 24  2  0
  1  2  1  0
 23 25  1  0
  6  7  1  0
 25 26  1  0
 26 27  1  0
  3  4  1  0
 12 13  1  0
 13 14  1  0
 14 15  1  0
 15 11  1  0
 26 31  1  0
 27 28  1  0
 28 29  1  0
 29 30  1  0
 30 31  1  0
M  END
> <Name>
Untitled_231

> <OBJECTID>
9223372221541646347

> <From>
www.bindingDB.org

> <BindingDB Reactant_set_id>
50935685

> <Ligand InChI>
InChI=1S/C22H35N3O6/c26-15-24(30)14-17(13-16-7-4-5-8-16)21(28)25-12-6-11-19(25)20(27)23-22(29)31-18-9-2-1-3-10-18/h15-19,30H,1-14H2,(H,23,27,29)/t17-,19+/m1/s1

> <Ligand InChI Key>
KORMDLJAEKFPQK-MJGOQNOKSA-N

> <BindingDB MonomerID>
50383988

> <BindingDB Ligand Name>
CHEMBL2032126

> <Target Name>
Peptide deformylase

> <Target Source Organism According to Curator or DataSource>
Staphylococcus aureus

> <Ki (nM)>
nan

> <IC50 (nM)>
1.5

> <Kd (nM)>
nan

> <EC50 (nM)>
nan

> <kon (M-1-s-1)>
nan

> <koff (s-1)>
nan

> <pH>
nan

> <Temp C>
nan

> <Curation/DataSource>
ChEMBL

> <Article DOI>
10.1016/j.bmcl.2012.04.086

> <BindingDB Entry DOI>
10.7270/Q2K64K3V

> <PMID>
22579486

> <PubChem AID>
<NA>

> <Patent Number>
nan

> <Authors>
Axten, JM; Medina, JR; Blackledge, CW; Duquenne, C; Grant, SW; Bobko, MA; Peng, T; Miller, WH; Pinckney, T; Gallagher, TF; Kulkarni, S; Lewandowski, T; Van Aller, GS; Zonis, R; Ward, P; Campobasso, N

> <Date of publication>
5/29/2012

> <Date in BindingDB>
2/7/2013

> <Institution>
GlaxoSmithKline

> <Link to Ligand in BindingDB>
http://www.bindingdb.org/bind/chemsearch/marvin/MolStructure.jsp?monomerid=50383988

> <Link to Ligand-Target Pair in BindingDB>
http://www.bindingdb.org/jsp/dbsearch/PrimarySearch_ki.jsp?energyterm=kJ/mole&tag=r21&monomerid=50383988&enzyme=Peptide+deformylase&column=ki&startPg=0&Increment=50&submit=Search

> <Ligand HET ID in PDB>
<NA>

> <PDB ID(s) for Ligand-Target Complex>
<NA>

> <PubChem CID of Ligand>
16036160

> <PubChem SID of Ligand>
160863071

> <ChEBI ID of Ligand>
nan

> <ChEMBL ID of Ligand>
CHEMBL2032126

> <DrugBank ID of Ligand>
<NA>

> <IUPHAR_GRAC ID of Ligand>
nan

> <KEGG ID of Ligand>
<NA>

> <ZINC ID of Ligand>
ZINC34874149

> <Number of Protein Chains in Target (bigger than 1 implies a multichain complex)>
1

> <BindingDB Target Chain Sequence>
MLTMKDIIRD GHPTLRQKAA ELELPLTKEE KETLIAMREF LVNSQDEEIA
KRYGLRSGVG LAAPQINISK RMIAVLIPDD GSGKSYDYML VNPKIVSHSV
QEAYLPTGEG CLSVDDNVAG LVHRHNRITI KAKDIEGNDI QLRLKGYPAI
VFQHEIDHLN GVMFYDHIDK NHPLQPHTDA VEV

> <PDB ID(s) of Target Chain>
1LM4,1LMH,1LQW,2AI9,6JFG,6JFO,6JFQ,6JFR,6JFS

> <UniProt (SwissProt) Recommended Name of Target Chain>
Peptide deformylase

> <UniProt (SwissProt) Entry Name of Target Chain>
DEF_STAAM

> <UniProt (SwissProt) Primary ID of Target Chain>
P68825

> <UniProt (SwissProt) Secondary ID(s) of Target Chain>
Q9F4L4

> <UniProt (SwissProt) Alternative ID(s) of Target Chain>
nan

> <UniProt (TrEMBL) Submitted Name of Target Chain>
<NA>

> <UniProt (TrEMBL) Entry Name of Target Chain>
<NA>

> <UniProt (TrEMBL) Primary ID of Target Chain>
<NA>

> <UniProt (TrEMBL) Secondary ID(s) of Target Chain>
nan

> <UniProt (TrEMBL) Alternative ID(s) of Target Chain>
nan

> <pIC50>
-0.1761

> <Num_H_Donors_Lipinski>
2

> <Num_H_Acceptors_Lipinski>
9

> <Molecular_Weight>
437.5298

> <ALogP>
2.93

> <Num_RotatableBonds>
8

> <Molecular_PolarSurfaceArea>
116.25

> <Num_H_Acceptors>
6

> <Num_H_Donors>
2

> <Num_Rings>
3

> <Num_AromaticRings>
0

> <Molecular_FractionalPolarSurfaceArea>
0.274

> <Activity_Bin>
8

> <PLSTempModel>
0.112723631418707

> <PLSTempModel_Residuals>
-0.288823631418707

$$$$
Untitled_219
  SciTegic11182514132D

 28 29  0  0  0  0            999 V2000
    1.0958  -22.7042    0.0000 C   0  0  2  0  0  0
    1.8103  -22.2917    0.0000 C   0  0
    0.3814  -22.2917    0.0000 C   0  0
   -0.3331  -22.7042    0.0000 N   0  0
    0.3814  -21.4667    0.0000 O   0  0
    2.5248  -22.7042    0.0000 N   0  0
    3.2392  -22.2917    0.0000 C   0  0
    2.5248  -23.5292    0.0000 O   0  0
    3.2392  -21.4667    0.0000 O   0  0
    1.0965  -23.5291    0.0000 C   0  0
    0.4216  -24.0040    0.0000 C   0  0
   -0.3611  -23.7367    0.0000 C   0  0
   -0.8560  -24.3968    0.0000 C   0  0
   -0.3811  -25.0715    0.0000 C   0  0
    0.4072  -24.8282    0.0000 C   0  0
   -1.0907  -22.3669    0.0000 C   0  0  1  0  0  0
   -1.6427  -22.9800    0.0000 C   0  0
   -1.2302  -23.6945    0.0000 C   0  0
   -0.4233  -23.5228    0.0000 C   0  0
   -1.2622  -21.5599    0.0000 C   0  0
   -0.6491  -21.0079    0.0000 O   0  0
   -2.0468  -21.3049    0.0000 N   0  0
   -2.2184  -20.4980    0.0000 C   0  0
   -1.6053  -19.9459    0.0000 O   0  0
   -3.0030  -20.2430    0.0000 N   0  0
   -3.1745  -19.4361    0.0000 C   0  0
   -2.5614  -18.8840    0.0000 C   0  0
   -2.7329  -18.0771    0.0000 O   0  0
 13 14  1  0
 14 15  1  0
 15 11  1  0
 16  4  1  0
  6  8  1  0
  7  9  2  0
  3  5  2  0
 16 17  1  0
 17 18  1  0
 18 19  1  0
 19  4  1  0
  1 10  1  1
 16 20  1  1
  1  3  1  0
 20 21  2  0
 10 11  1  0
 20 22  1  0
 11 12  1  0
 22 23  1  0
  2  6  1  0
 23 24  2  0
  1  2  1  0
 23 25  1  0
  6  7  1  0
 25 26  1  0
  3  4  1  0
 26 27  1  0
 12 13  1  0
 27 28  1  0
M  END
> <Name>
Untitled_219

> <OBJECTID>
9223372195771842571

> <From>
www.bindingDB.org

> <BindingDB Reactant_set_id>
50935666

> <Ligand InChI>
InChI=1S/C18H30N4O6/c23-9-7-19-18(27)20-16(25)15-6-3-8-22(15)17(26)14(11-21(28)12-24)10-13-4-1-2-5-13/h12-15,23,28H,1-11H2,(H2,19,20,25,27)/t14-,15+/m1/s1

> <Ligand InChI Key>
PVFAWBIVNRXKJZ-CABCVRRESA-N

> <BindingDB MonomerID>
50383970

> <BindingDB Ligand Name>
CHEMBL2032144

> <Target Name>
Peptide deformylase

> <Target Source Organism According to Curator or DataSource>
Streptococcus pneumoniae serotype 4 (strain ATCC BAA-334 / TIGR4)

> <Ki (nM)>
nan

> <IC50 (nM)>
1.1

> <Kd (nM)>
nan

> <EC50 (nM)>
nan

> <kon (M-1-s-1)>
nan

> <koff (s-1)>
nan

> <pH>
nan

> <Temp C>
nan

> <Curation/DataSource>
ChEMBL

> <Article DOI>
10.1016/j.bmcl.2012.04.086

> <BindingDB Entry DOI>
10.7270/Q2K64K3V

> <PMID>
22579486

> <PubChem AID>
<NA>

> <Patent Number>
nan

> <Authors>
Axten, JM; Medina, JR; Blackledge, CW; Duquenne, C; Grant, SW; Bobko, MA; Peng, T; Miller, WH; Pinckney, T; Gallagher, TF; Kulkarni, S; Lewandowski, T; Van Aller, GS; Zonis, R; Ward, P; Campobasso, N

> <Date of publication>
5/29/2012

> <Date in BindingDB>
2/7/2013

> <Institution>
GlaxoSmithKline

> <Link to Ligand in BindingDB>
http://www.bindingdb.org/bind/chemsearch/marvin/MolStructure.jsp?monomerid=50383970

> <Link to Ligand-Target Pair in BindingDB>
http://www.bindingdb.org/jsp/dbsearch/PrimarySearch_ki.jsp?energyterm=kJ/mole&tag=r21&monomerid=50383970&enzyme=Peptide+deformylase&column=ki&startPg=0&Increment=50&submit=Search

> <Ligand HET ID in PDB>
<NA>

> <PDB ID(s) for Ligand-Target Complex>
<NA>

> <PubChem CID of Ligand>
16035293

> <PubChem SID of Ligand>
160863053

> <ChEBI ID of Ligand>
nan

> <ChEMBL ID of Ligand>
CHEMBL2032144

> <DrugBank ID of Ligand>
<NA>

> <IUPHAR_GRAC ID of Ligand>
nan

> <KEGG ID of Ligand>
C04080

> <ZINC ID of Ligand>
ZINC34873309

> <Number of Protein Chains in Target (bigger than 1 implies a multichain complex)>
1

> <BindingDB Target Chain Sequence>
MSAIERITKAAHLIDMNDIIREGNPTLRAIAEEVTFPLSDQEIILGEKMMQFLKHSQDPVMAEKMGLRGGVGLAAPQLDISKRIIAVLVPNIVEEGETPQEAYDLEAIMYNPKIVSHSVQDAALGEGEGCLSVDRNVPGYVVRHARVTVDYFDKDGEKHRIKLKGYNSIVVQHEIDHINGIMFYDRINEKDPFAVKDGLL
ILE

> <PDB ID(s) of Target Chain>
<NA>

> <UniProt (SwissProt) Recommended Name of Target Chain>
Peptide deformylase

> <UniProt (SwissProt) Entry Name of Target Chain>
DEF_STRPN

> <UniProt (SwissProt) Primary ID of Target Chain>
Q9F2F0

> <UniProt (SwissProt) Secondary ID(s) of Target Chain>
<NA>

> <UniProt (SwissProt) Alternative ID(s) of Target Chain>
nan

> <UniProt (TrEMBL) Submitted Name of Target Chain>
<NA>

> <UniProt (TrEMBL) Entry Name of Target Chain>
<NA>

> <UniProt (TrEMBL) Primary ID of Target Chain>
<NA>

> <UniProt (TrEMBL) Secondary ID(s) of Target Chain>
nan

> <UniProt (TrEMBL) Alternative ID(s) of Target Chain>
nan

> <pIC50>
-0.0414

> <Num_H_Donors_Lipinski>
4

> <Num_H_Acceptors_Lipinski>
10

> <Molecular_Weight>
398.454

> <ALogP>
-0.115

> <Num_RotatableBonds>
8

> <Molecular_PolarSurfaceArea>
139.28

> <Num_H_Acceptors>
6

> <Num_H_Donors>
4

> <Num_Rings>
2

> <Num_AromaticRings>
0

> <Molecular_FractionalPolarSurfaceArea>
0.354

> <Activity_Bin>
8

> <PLSTempModel>
-4.84239697059206e-002

> <PLSTempModel_Residuals>
7.02396970592056e-003

$$$$
Untitled_38
  SciTegic11182514132D

 32 34  0  0  0  0            999 V2000
   17.4458   -8.1208    0.0000 C   0  0  2  0  0  0
   18.1603   -7.7083    0.0000 C   0  0
   16.7314   -7.7083    0.0000 C   0  0
   16.0169   -8.1208    0.0000 N   0  0
   16.7314   -6.8833    0.0000 O   0  0
   18.8748   -8.1208    0.0000 N   0  0
   19.5892   -7.7083    0.0000 C   0  0
   18.8748   -8.9458    0.0000 O   0  0
   19.5892   -6.8833    0.0000 O   0  0
   17.4465   -8.9458    0.0000 C   0  0
   16.7716   -9.4207    0.0000 C   0  0
   15.9889   -9.1533    0.0000 C   0  0
   15.4940   -9.8135    0.0000 C   0  0
   15.9689  -10.4881    0.0000 C   0  0
   16.7572  -10.2448    0.0000 C   0  0
   15.2593   -7.7835    0.0000 C   0  0  1  0  0  0
   14.7073   -8.3966    0.0000 C   0  0
   15.1198   -9.1111    0.0000 C   0  0
   15.9267   -8.9395    0.0000 C   0  0
   15.0878   -6.9766    0.0000 C   0  0
   15.7009   -6.4245    0.0000 O   0  0
   14.3032   -6.7216    0.0000 N   0  0
   14.1316   -5.9146    0.0000 C   0  0
   14.7447   -5.3626    0.0000 O   0  0
   13.3470   -5.6597    0.0000 N   0  0
   13.1755   -4.8527    0.0000 C   0  0
   13.7886   -4.3007    0.0000 C   0  0
   14.5724   -4.5594    0.0000 C   0  0
   15.1851   -4.0082    0.0000 C   0  0
   15.0139   -3.2002    0.0000 C   0  0
   14.2244   -2.9465    0.0000 C   0  0
   13.6150   -3.4995    0.0000 C   0  0
  6  8  1  0
  7  9  2  0
  3  5  2  0
 16 17  1  0
 17 18  1  0
 18 19  1  0
 19  4  1  0
  1 10  1  1
 16 20  1  1
  1  3  1  0
 20 21  2  0
 10 11  1  0
 20 22  1  0
 11 12  1  0
 22 23  1  0
  2  6  1  0
 23 24  2  0
  1  2  1  0
 23 25  1  0
  6  7  1  0
 25 26  1  0
  3  4  1  0
 26 27  1  0
 12 13  1  0
 27 28  2  0
 13 14  1  0
 28 29  1  0
 14 15  1  0
 29 30  2  0
 15 11  1  0
 30 31  1  0
 16  4  1  0
 31 32  2  0
 32 27  1  0
M  END
> <Name>
Untitled_38

> <OBJECTID>
9223372049742954507

> <From>
www.bindingDB.org

> <BindingDB Reactant_set_id>
50935658

> <Ligand InChI>
InChI=1S/C23H32N4O5/c28-16-26(32)15-19(13-17-7-4-5-8-17)22(30)27-12-6-11-20(27)21(29)25-23(31)24-14-18-9-2-1-3-10-18/h1-3,9-10,16-17,19-20,32H,4-8,11-15H2,(H2,24,25,29,31)/t19-,20+/m1/s1

> <Ligand InChI Key>
TVUQLYMPXSMCKY-UXHICEINSA-N

> <BindingDB MonomerID>
50383998

> <BindingDB Ligand Name>
CHEMBL2032136

> <Target Name>
Peptide deformylase

> <Target Source Organism According to Curator or DataSource>
Streptococcus pneumoniae serotype 4 (strain ATCC BAA-334 / TIGR4)

> <Ki (nM)>
nan

> <IC50 (nM)>
0.19

> <Kd (nM)>
nan

> <EC50 (nM)>
nan

> <kon (M-1-s-1)>
nan

> <koff (s-1)>
nan

> <pH>
nan

> <Temp C>
nan

> <Curation/DataSource>
ChEMBL

> <Article DOI>
10.1016/j.bmcl.2012.04.086

> <BindingDB Entry DOI>
10.7270/Q2K64K3V

> <PMID>
22579486

> <PubChem AID>
<NA>

> <Patent Number>
nan

> <Authors>
Axten, JM; Medina, JR; Blackledge, CW; Duquenne, C; Grant, SW; Bobko, MA; Peng, T; Miller, WH; Pinckney, T; Gallagher, TF; Kulkarni, S; Lewandowski, T; Van Aller, GS; Zonis, R; Ward, P; Campobasso, N

> <Date of publication>
5/29/2012

> <Date in BindingDB>
2/7/2013

> <Institution>
GlaxoSmithKline

> <Link to Ligand in BindingDB>
http://www.bindingdb.org/bind/chemsearch/marvin/MolStructure.jsp?monomerid=50383998

> <Link to Ligand-Target Pair in BindingDB>
http://www.bindingdb.org/jsp/dbsearch/PrimarySearch_ki.jsp?energyterm=kJ/mole&tag=r21&monomerid=50383998&enzyme=Peptide+deformylase&column=ki&startPg=0&Increment=50&submit=Search

> <Ligand HET ID in PDB>
<NA>

> <PDB ID(s) for Ligand-Target Complex>
<NA>

> <PubChem CID of Ligand>
57878102

> <PubChem SID of Ligand>
160863081

> <ChEBI ID of Ligand>
nan

> <ChEMBL ID of Ligand>
CHEMBL2032136

> <DrugBank ID of Ligand>
<NA>

> <IUPHAR_GRAC ID of Ligand>
nan

> <KEGG ID of Ligand>
<NA>

> <ZINC ID of Ligand>
ZINC84759167

> <Number of Protein Chains in Target (bigger than 1 implies a multichain complex)>
1

> <BindingDB Target Chain Sequence>
MSAIERITKAAHLIDMNDIIREGNPTLRAIAEEVTFPLSDQEIILGEKMMQFLKHSQDPVMAEKMGLRGGVGLAAPQLDISKRIIAVLVPNIVEEGETPQEAYDLEAIMYNPKIVSHSVQDAALGEGEGCLSVDRNVPGYVVRHARVTVDYFDKDGEKHRIKLKGYNSIVVQHEIDHINGIMFYDRINEKDPFAVKDGLL
ILE

> <PDB ID(s) of Target Chain>
<NA>

> <UniProt (SwissProt) Recommended Name of Target Chain>
Peptide deformylase

> <UniProt (SwissProt) Entry Name of Target Chain>
DEF_STRPN

> <UniProt (SwissProt) Primary ID of Target Chain>
Q9F2F0

> <UniProt (SwissProt) Secondary ID(s) of Target Chain>
<NA>

> <UniProt (SwissProt) Alternative ID(s) of Target Chain>
nan

> <UniProt (TrEMBL) Submitted Name of Target Chain>
<NA>

> <UniProt (TrEMBL) Entry Name of Target Chain>
<NA>

> <UniProt (TrEMBL) Primary ID of Target Chain>
<NA>

> <UniProt (TrEMBL) Secondary ID(s) of Target Chain>
nan

> <UniProt (TrEMBL) Alternative ID(s) of Target Chain>
nan

> <pIC50>
0.7212

> <Num_H_Donors_Lipinski>
3

> <Num_H_Acceptors_Lipinski>
9

> <Molecular_Weight>
444.52398

> <ALogP>
2.008

> <Num_RotatableBonds>
8

> <Molecular_PolarSurfaceArea>
119.05

> <Num_H_Acceptors>
5

> <Num_H_Donors>
3

> <Num_Rings>
3

> <Num_AromaticRings>
1

> <Molecular_FractionalPolarSurfaceArea>
0.275

> <Activity_Bin>
10

> <PLSTempModel>
0.34012717831834

> <PLSTempModel_Residuals>
0.38107282168166

$$$$
Untitled_37
  SciTegic11182514132D

 32 34  0  0  0  0            999 V2000
   35.2833  -22.1875    0.0000 C   0  0  2  0  0  0
   35.9978  -21.7750    0.0000 C   0  0
   34.5689  -21.7750    0.0000 C   0  0
   33.8544  -22.1875    0.0000 N   0  0
   34.5689  -20.9500    0.0000 O   0  0
   36.7123  -22.1875    0.0000 N   0  0
   37.4267  -21.7750    0.0000 C   0  0
   36.7123  -23.0125    0.0000 O   0  0
   37.4267  -20.9500    0.0000 O   0  0
   35.2840  -23.0124    0.0000 C   0  0
   34.6091  -23.4874    0.0000 C   0  0
   33.8264  -23.2200    0.0000 C   0  0
   33.3315  -23.8801    0.0000 C   0  0
   33.8064  -24.5548    0.0000 C   0  0
   34.5947  -24.3115    0.0000 C   0  0
   33.0968  -21.8502    0.0000 C   0  0  1  0  0  0
   32.5448  -22.4633    0.0000 C   0  0
   32.9573  -23.1778    0.0000 C   0  0
   33.7642  -23.0062    0.0000 C   0  0
   32.9253  -21.0432    0.0000 C   0  0
   33.5384  -20.4912    0.0000 O   0  0
   32.1407  -20.7883    0.0000 N   0  0
   31.9691  -19.9813    0.0000 C   0  0
   32.5822  -19.4293    0.0000 O   0  0
   31.1845  -19.7264    0.0000 N   0  0
   31.0130  -18.9194    0.0000 C   0  0
   31.6261  -18.3674    0.0000 C   0  0
   31.4546  -17.5604    0.0000 C   0  0
   32.0046  -16.9461    0.0000 C   0  0
   31.5921  -16.2317    0.0000 N   0  0
   30.7851  -16.4032    0.0000 C   0  0
   30.6990  -17.2237    0.0000 N   0  0
  6  8  1  0
  7  9  2  0
  3  5  2  0
 16 17  1  0
 17 18  1  0
 18 19  1  0
 19  4  1  0
  1 10  1  1
 16 20  1  1
  1  3  1  0
 20 21  2  0
 10 11  1  0
 20 22  1  0
 11 12  1  0
 22 23  1  0
  2  6  1  0
 23 24  2  0
  1  2  1  0
 23 25  1  0
  6  7  1  0
 25 26  1  0
  3  4  1  0
 26 27  1  0
 12 13  1  0
 27 28  1  0
 28 29  2  0
 13 14  1  0
 14 15  1  0
 15 11  1  0
 16  4  1  0
 29 30  1  0
 30 31  2  0
 31 32  1  0
 32 28  1  0
M  END
> <Name>
Untitled_37

> <OBJECTID>
9223372045447987211

> <From>
www.bindingDB.org

> <BindingDB Reactant_set_id>
50935624

> <Ligand InChI>
InChI=1S/C21H32N6O5/c28-14-26(32)12-16(10-15-4-1-2-5-15)20(30)27-9-3-6-18(27)19(29)25-21(31)23-8-7-17-11-22-13-24-17/h11,13-16,18,32H,1-10,12H2,(H,22,24)(H2,23,25,29,31)/t16-,18+/m1/s1

> <Ligand InChI Key>
UAYGKXFJYJQLIP-AEFFLSMTSA-N

> <BindingDB MonomerID>
50383966

> <BindingDB Ligand Name>
CHEMBL2032148

> <Target Name>
Peptide deformylase

> <Target Source Organism According to Curator or DataSource>
Streptococcus pneumoniae serotype 4 (strain ATCC BAA-334 / TIGR4)

> <Ki (nM)>
nan

> <IC50 (nM)>
0.15

> <Kd (nM)>
nan

> <EC50 (nM)>
nan

> <kon (M-1-s-1)>
nan

> <koff (s-1)>
nan

> <pH>
nan

> <Temp C>
nan

> <Curation/DataSource>
ChEMBL

> <Article DOI>
10.1016/j.bmcl.2012.04.086

> <BindingDB Entry DOI>
10.7270/Q2K64K3V

> <PMID>
22579486

> <PubChem AID>
<NA>

> <Patent Number>
nan

> <Authors>
Axten, JM; Medina, JR; Blackledge, CW; Duquenne, C; Grant, SW; Bobko, MA; Peng, T; Miller, WH; Pinckney, T; Gallagher, TF; Kulkarni, S; Lewandowski, T; Van Aller, GS; Zonis, R; Ward, P; Campobasso, N

> <Date of publication>
5/29/2012

> <Date in BindingDB>
2/7/2013

> <Institution>
GlaxoSmithKline

> <Link to Ligand in BindingDB>
http://www.bindingdb.org/bind/chemsearch/marvin/MolStructure.jsp?monomerid=50383966

> <Link to Ligand-Target Pair in BindingDB>
http://www.bindingdb.org/jsp/dbsearch/PrimarySearch_ki.jsp?energyterm=kJ/mole&tag=r21&monomerid=50383966&enzyme=Peptide+deformylase&column=ki&startPg=0&Increment=50&submit=Search

> <Ligand HET ID in PDB>
<NA>

> <PDB ID(s) for Ligand-Target Complex>
<NA>

> <PubChem CID of Ligand>
70681653

> <PubChem SID of Ligand>
160863049

> <ChEBI ID of Ligand>
nan

> <ChEMBL ID of Ligand>
CHEMBL2032148

> <DrugBank ID of Ligand>
<NA>

> <IUPHAR_GRAC ID of Ligand>
nan

> <KEGG ID of Ligand>
<NA>

> <ZINC ID of Ligand>
ZINC84670517

> <Number of Protein Chains in Target (bigger than 1 implies a multichain complex)>
1

> <BindingDB Target Chain Sequence>
MSAIERITKAAHLIDMNDIIREGNPTLRAIAEEVTFPLSDQEIILGEKMMQFLKHSQDPVMAEKMGLRGGVGLAAPQLDISKRIIAVLVPNIVEEGETPQEAYDLEAIMYNPKIVSHSVQDAALGEGEGCLSVDRNVPGYVVRHARVTVDYFDKDGEKHRIKLKGYNSIVVQHEIDHINGIMFYDRINEKDPFAVKDGLL
ILE

> <PDB ID(s) of Target Chain>
<NA>

> <UniProt (SwissProt) Recommended Name of Target Chain>
Peptide deformylase

> <UniProt (SwissProt) Entry Name of Target Chain>
DEF_STRPN

> <UniProt (SwissProt) Primary ID of Target Chain>
Q9F2F0

> <UniProt (SwissProt) Secondary ID(s) of Target Chain>
<NA>

> <UniProt (SwissProt) Alternative ID(s) of Target Chain>
nan

> <UniProt (TrEMBL) Submitted Name of Target Chain>
<NA>

> <UniProt (TrEMBL) Entry Name of Target Chain>
<NA>

> <UniProt (TrEMBL) Primary ID of Target Chain>
<NA>

> <UniProt (TrEMBL) Secondary ID(s) of Target Chain>
nan

> <UniProt (TrEMBL) Alternative ID(s) of Target Chain>
nan

> <pIC50>
0.8239

> <Num_H_Donors_Lipinski>
4

> <Num_H_Acceptors_Lipinski>
11

> <Molecular_Weight>
448.51598

> <ALogP>
0.222

> <Num_RotatableBonds>
9

> <Molecular_PolarSurfaceArea>
147.72

> <Num_H_Acceptors>
6

> <Num_H_Donors>
4

> <Num_Rings>
3

> <Num_AromaticRings>
1

> <Molecular_FractionalPolarSurfaceArea>
0.336

> <Activity_Bin>
10

> <PLSTempModel>
0.456215441465868

> <PLSTempModel_Residuals>
0.367684558534132

$$$$
Untitled_223
  SciTegic11182514132D

 28 29  0  0  0  0            999 V2000
   34.1333   -0.6917    0.0000 C   0  0  2  0  0  0
   34.8478   -0.2792    0.0000 C   0  0
   33.4189   -0.2792    0.0000 C   0  0
   32.7044   -0.6917    0.0000 N   0  0
   33.4189    0.5458    0.0000 O   0  0
   35.5623   -0.6917    0.0000 N   0  0
   36.2767   -0.2792    0.0000 C   0  0
   35.5623   -1.5167    0.0000 O   0  0
   36.2767    0.5458    0.0000 O   0  0
   34.1340   -1.5166    0.0000 C   0  0
   33.4591   -1.9915    0.0000 C   0  0
   32.6764   -1.7242    0.0000 C   0  0
   32.1815   -2.3843    0.0000 C   0  0
   32.6564   -3.0590    0.0000 C   0  0
   33.4447   -2.8157    0.0000 C   0  0
   31.9468   -0.3544    0.0000 C   0  0  1  0  0  0
   31.3948   -0.9675    0.0000 C   0  0
   31.8073   -1.6820    0.0000 C   0  0
   32.6142   -1.5103    0.0000 C   0  0
   31.7753    0.4526    0.0000 C   0  0
   32.3884    1.0046    0.0000 O   0  0
   30.9907    0.7076    0.0000 N   0  0
   30.8191    1.5145    0.0000 C   0  0
   30.0345    1.7695    0.0000 C   0  0
   31.4322    2.0666    0.0000 O   0  0
   29.8630    2.5764    0.0000 C   0  0
   29.4214    1.2174    0.0000 C   0  0
   29.2333    1.9875    0.0000 C   0  0
 13 14  1  0
 14 15  1  0
 15 11  1  0
 16  4  1  0
  6  8  1  0
  7  9  2  0
  3  5  2  0
 16 17  1  0
 17 18  1  0
 18 19  1  0
 19  4  1  0
  1 10  1  1
 16 20  1  1
  1  3  1  0
 20 21  2  0
 10 11  1  0
 20 22  1  0
 11 12  1  0
 22 23  1  0
  2  6  1  0
 23 24  1  0
  1  2  1  0
 23 25  2  0
  6  7  1  0
 24 26  1  0
  3  4  1  0
 24 27  1  0
 12 13  1  0
 24 28  1  0
M  END
> <Name>
Untitled_223

> <OBJECTID>
9223372204361777163

> <From>
www.bindingDB.org

> <BindingDB Reactant_set_id>
50935636

> <Ligand InChI>
InChI=1S/C20H33N3O5/c1-20(2,3)19(27)21-17(25)16-9-6-10-23(16)18(26)15(12-22(28)13-24)11-14-7-4-5-8-14/h13-16,28H,4-12H2,1-3H3,(H,21,25,27)/t15-,16+/m1/s1

> <Ligand InChI Key>
LMTMBYPIWWXGRA-CVEARBPZSA-N

> <BindingDB MonomerID>
50383977

> <BindingDB Ligand Name>
CHEMBL2032114

> <Target Name>
Peptide deformylase

> <Target Source Organism According to Curator or DataSource>
Streptococcus pneumoniae serotype 4 (strain ATCC BAA-334 / TIGR4)

> <Ki (nM)>
nan

> <IC50 (nM)>
1.3

> <Kd (nM)>
nan

> <EC50 (nM)>
nan

> <kon (M-1-s-1)>
nan

> <koff (s-1)>
nan

> <pH>
nan

> <Temp C>
nan

> <Curation/DataSource>
ChEMBL

> <Article DOI>
10.1016/j.bmcl.2012.04.086

> <BindingDB Entry DOI>
10.7270/Q2K64K3V

> <PMID>
22579486

> <PubChem AID>
<NA>

> <Patent Number>
nan

> <Authors>
Axten, JM; Medina, JR; Blackledge, CW; Duquenne, C; Grant, SW; Bobko, MA; Peng, T; Miller, WH; Pinckney, T; Gallagher, TF; Kulkarni, S; Lewandowski, T; Van Aller, GS; Zonis, R; Ward, P; Campobasso, N

> <Date of publication>
5/29/2012

> <Date in BindingDB>
2/7/2013

> <Institution>
GlaxoSmithKline

> <Link to Ligand in BindingDB>
http://www.bindingdb.org/bind/chemsearch/marvin/MolStructure.jsp?monomerid=50383977

> <Link to Ligand-Target Pair in BindingDB>
http://www.bindingdb.org/jsp/dbsearch/PrimarySearch_ki.jsp?energyterm=kJ/mole&tag=r21&monomerid=50383977&enzyme=Peptide+deformylase&column=ki&startPg=0&Increment=50&submit=Search

> <Ligand HET ID in PDB>
<NA>

> <PDB ID(s) for Ligand-Target Complex>
<NA>

> <PubChem CID of Ligand>
16036394

> <PubChem SID of Ligand>
160863060

> <ChEBI ID of Ligand>
nan

> <ChEMBL ID of Ligand>
CHEMBL2032114

> <DrugBank ID of Ligand>
<NA>

> <IUPHAR_GRAC ID of Ligand>
nan

> <KEGG ID of Ligand>
<NA>

> <ZINC ID of Ligand>
ZINC34874364

> <Number of Protein Chains in Target (bigger than 1 implies a multichain complex)>
1

> <BindingDB Target Chain Sequence>
MSAIERITKAAHLIDMNDIIREGNPTLRAIAEEVTFPLSDQEIILGEKMMQFLKHSQDPVMAEKMGLRGGVGLAAPQLDISKRIIAVLVPNIVEEGETPQEAYDLEAIMYNPKIVSHSVQDAALGEGEGCLSVDRNVPGYVVRHARVTVDYFDKDGEKHRIKLKGYNSIVVQHEIDHINGIMFYDRINEKDPFAVKDGLL
ILE

> <PDB ID(s) of Target Chain>
<NA>

> <UniProt (SwissProt) Recommended Name of Target Chain>
Peptide deformylase

> <UniProt (SwissProt) Entry Name of Target Chain>
DEF_STRPN

> <UniProt (SwissProt) Primary ID of Target Chain>
Q9F2F0

> <UniProt (SwissProt) Secondary ID(s) of Target Chain>
<NA>

> <UniProt (SwissProt) Alternative ID(s) of Target Chain>
nan

> <UniProt (TrEMBL) Submitted Name of Target Chain>
<NA>

> <UniProt (TrEMBL) Entry Name of Target Chain>
<NA>

> <UniProt (TrEMBL) Primary ID of Target Chain>
<NA>

> <UniProt (TrEMBL) Secondary ID(s) of Target Chain>
nan

> <UniProt (TrEMBL) Alternative ID(s) of Target Chain>
nan

> <pIC50>
-0.1139

> <Num_H_Donors_Lipinski>
2

> <Num_H_Acceptors_Lipinski>
8

> <Molecular_Weight>
395.49312

> <ALogP>
1.975

> <Num_RotatableBonds>
7

> <Molecular_PolarSurfaceArea>
107.02

> <Num_H_Acceptors>
5

> <Num_H_Donors>
2

> <Num_Rings>
2

> <Num_AromaticRings>
0

> <Molecular_FractionalPolarSurfaceArea>
0.262

> <Activity_Bin>
8

> <PLSTempModel>
-0.330078708232404

> <PLSTempModel_Residuals>
0.216178708232404

$$$$
Untitled_381
  SciTegic11182514132D

 36 39  0  0  0  0            999 V2000
    5.8043   -1.0971    0.0000 C   0  0
    5.0898   -1.5096    0.0000 C   0  0  2  0  0  0
    5.0898   -2.3346    0.0000 C   0  0
    5.8043   -0.2721    0.0000 O   0  0
    6.5188   -1.5096    0.0000 N   0  0
    7.2333   -1.0971    0.0000 N   0  0
    7.9477    0.1404    0.0000 C   0  0
    7.2333   -0.2721    0.0000 C   0  0
    6.5188    0.1404    0.0000 N   0  0
    6.5188    0.9654    0.0000 C   0  0
    7.2333    1.3779    0.0000 N   0  0
    7.9477    0.9654    0.0000 C   0  0
    5.8043    1.3779    0.0000 C   0  0
   10.0911    3.8529    0.0000 O   0  0
    9.3767    3.4404    0.0000 C   0  0
   10.8056    2.6154    0.0000 C   0  0
   10.8056    3.4404    0.0000 C   0  0
    8.6622    2.2029    0.0000 C   0  0
    9.3767    2.6154    0.0000 C   0  0  2  0  0  0
   10.0911    2.2029    0.0000 N   0  0
   10.0911    1.3779    0.0000 C   0  0
    9.3767    0.9654    0.0000 C   0  0
    8.6622    1.3779    0.0000 N   0  0
    8.6622   -0.2721    0.0000 F   0  0
    4.3754   -1.0971    0.0000 C   0  0
    3.6609   -1.5096    0.0000 N   0  0
    2.9464   -1.0971    0.0000 C   0  0
    2.9464   -0.2721    0.0000 O   0  0
    5.8043   -2.7471    0.0000 C   0  0
    6.5580   -2.4115    0.0000 C   0  0
    7.1100   -3.0246    0.0000 C   0  0
    6.6975   -3.7391    0.0000 C   0  0
    5.8905   -3.5676    0.0000 C   0  0
    3.6609   -2.3346    0.0000 O   0  0
    8.6622    3.0279    0.0000 H   0  0
    4.3754   -1.9221    0.0000 H   0  0
  1  2  1  0
  2  3  1  0
  5  6  1  0
  5  1  1  0
  4  1  2  0
  7  8  2  0
  8  9  1  0
  9 10  2  0
 10 11  1  0
 11 12  2  0
  7 12  1  0
 10 13  1  0
 14 15  1  0
 15 19  1  0
 20 16  1  0
 16 17  1  0
 14 17  1  0
 18 19  1  0
 19 20  1  0
 20 21  1  0
 21 22  1  0
 22 23  1  0
 18 23  1  0
 12 23  1  0
  7 24  1  0
  6  8  1  0
 27 28  2  0
 26 27  1  0
 25 26  1  0
  2 25  1  0
 29 30  1  0
 30 31  1  0
 31 32  1  0
 32 33  1  0
 29 33  1  0
  3 29  1  0
 26 34  1  0
 19 35  1  6
  2 36  1  1
M  END
> <Name>
Untitled_381

> <OBJECTID>
9223372328915828747

> <From>
www.bindingDB.org

> <BindingDB Reactant_set_id>
51323490

> <Ligand InChI>
InChI=1S/C22H34FN7O4/c1-15-24-20(19(23)21(25-15)29-7-6-28-8-9-34-13-18(28)12-29)26-27-22(32)17(11-30(33)14-31)10-16-4-2-3-5-16/h14,16-18,33H,2-13H2,1H3,(H,27,32)(H,24,25,26)/t17-,18+/m1/s1

> <Ligand InChI Key>
SWHNZGMQMGFQGW-MSOLQXFVSA-N

> <BindingDB MonomerID>
50535502

> <BindingDB Ligand Name>
GSK-1322322B::GSK1322322::GSK1322322B::Lanopepden

> <Target Name>
Peptide deformylase

> <Target Source Organism According to Curator or DataSource>
Staphylococcus aureus

> <Ki (nM)>
nan

> <IC50 (nM)>
12

> <Kd (nM)>
nan

> <EC50 (nM)>
nan

> <kon (M-1-s-1)>
nan

> <koff (s-1)>
nan

> <pH>
nan

> <Temp C>
nan

> <Curation/DataSource>
ChEMBL

> <Article DOI>
10.1016/j.bmcl.2019.05.028

> <BindingDB Entry DOI>
10.7270/Q2FF3WV7

> <PMID>
31160176

> <PubChem AID>
<NA>

> <Patent Number>
nan

> <Authors>
Spletstoser, JT; Dreabit, J; Knox, AN; Benowitz, A; Campobasso, N; Ward, P; Cui, G; Lewandowski, T; McCloskey, L; Aubart, KM

> <Date of publication>
8/15/2019

> <Date in BindingDB>
2/28/2021

> <Institution>
GlaxoSmithKline

> <Link to Ligand in BindingDB>
http://www.bindingdb.org/bind/chemsearch/marvin/MolStructure.jsp?monomerid=50535502

> <Link to Ligand-Target Pair in BindingDB>
http://www.bindingdb.org/jsp/dbsearch/PrimarySearch_ki.jsp?energyterm=kJ/mole&tag=r21&monomerid=50535502&enzyme=Peptide+deformylase&column=ki&startPg=0&Increment=50&submit=Search

> <Ligand HET ID in PDB>
<NA>

> <PDB ID(s) for Ligand-Target Complex>
<NA>

> <PubChem CID of Ligand>
52918384

> <PubChem SID of Ligand>
440744084

> <ChEBI ID of Ligand>
nan

> <ChEMBL ID of Ligand>
<NA>

> <DrugBank ID of Ligand>
<NA>

> <IUPHAR_GRAC ID of Ligand>
nan

> <KEGG ID of Ligand>
<NA>

> <ZINC ID of Ligand>
<NA>

> <Number of Protein Chains in Target (bigger than 1 implies a multichain complex)>
1

> <BindingDB Target Chain Sequence>
MLTMKDIIRD GHPTLRQKAA ELELPLTKEE KETLIAMREF LVNSQDEEIA
KRYGLRSGVG LAAPQINISK RMIAVLIPDD GSGKSYDYML VNPKIVSHSV
QEAYLPTGEG CLSVDDNVAG LVHRHNRITI KAKDIEGNDI QLRLKGYPAI
VFQHEIDHLN GVMFYDHIDK NHPLQPHTDA VEV

> <PDB ID(s) of Target Chain>
1LM4,1LMH,1LQW,2AI9,6JFG,6JFO,6JFQ,6JFR,6JFS

> <UniProt (SwissProt) Recommended Name of Target Chain>
Peptide deformylase

> <UniProt (SwissProt) Entry Name of Target Chain>
DEF_STAAM

> <UniProt (SwissProt) Primary ID of Target Chain>
P68825

> <UniProt (SwissProt) Secondary ID(s) of Target Chain>
Q9F4L4

> <UniProt (SwissProt) Alternative ID(s) of Target Chain>
nan

> <UniProt (TrEMBL) Submitted Name of Target Chain>
<NA>

> <UniProt (TrEMBL) Entry Name of Target Chain>
<NA>

> <UniProt (TrEMBL) Primary ID of Target Chain>
<NA>

> <UniProt (TrEMBL) Secondary ID(s) of Target Chain>
nan

> <UniProt (TrEMBL) Alternative ID(s) of Target Chain>
nan

> <pIC50>
-1.0792

> <Num_H_Donors_Lipinski>
3

> <Num_H_Acceptors_Lipinski>
11

> <Molecular_Weight>
479.54826

> <ALogP>
1.678

> <Num_RotatableBonds>
8

> <Molecular_PolarSurfaceArea>
123.15

> <Num_H_Acceptors>
9

> <Num_H_Donors>
3

> <Num_Rings>
4

> <Num_AromaticRings>
1

> <Molecular_FractionalPolarSurfaceArea>
0.27

> <Activity_Bin>
6

> <PLSTempModel>
-0.988426101961984

> <PLSTempModel_Residuals>
-9.07738980380161e-002

$$$$
Untitled_47
  SciTegic11182514132D

 33 35  0  0  0  0            999 V2000
    9.1125  -15.8917    0.0000 C   0  0  2  0  0  0
    9.8270  -15.4792    0.0000 C   0  0
    8.3980  -15.4792    0.0000 C   0  0
    7.6836  -15.8917    0.0000 N   0  0
    8.3980  -14.6542    0.0000 O   0  0
   10.5414  -15.8917    0.0000 N   0  0
   11.2559  -15.4792    0.0000 C   0  0
   10.5414  -16.7167    0.0000 O   0  0
   11.2559  -14.6542    0.0000 O   0  0
    9.1132  -16.7166    0.0000 C   0  0
    8.4382  -17.1915    0.0000 C   0  0
    7.6555  -16.9242    0.0000 C   0  0
    7.1607  -17.5843    0.0000 C   0  0
    7.6356  -18.2590    0.0000 C   0  0
    8.4239  -18.0157    0.0000 C   0  0
    6.9260  -15.5544    0.0000 C   0  0  1  0  0  0
    6.3739  -16.1675    0.0000 C   0  0
    6.7865  -16.8820    0.0000 C   0  0
    7.5934  -16.7103    0.0000 C   0  0
    6.7544  -14.7474    0.0000 C   0  0
    7.3675  -14.1954    0.0000 O   0  0
    5.9698  -14.4924    0.0000 N   0  0
    5.7983  -13.6855    0.0000 C   0  0
    6.4114  -13.1334    0.0000 O   0  0
    5.0137  -13.4305    0.0000 N   0  0
    4.8422  -12.6236    0.0000 C   0  0
    5.4552  -12.0715    0.0000 C   0  0
    5.2837  -11.2646    0.0000 C   0  0
    5.8982  -10.7155    0.0000 C   0  0
    5.7272   -9.9092    0.0000 C   0  0
    4.9419   -9.6536    0.0000 N   0  0
    4.3274  -10.2105    0.0000 C   0  0
    4.5016  -11.0147    0.0000 C   0  0
  7  9  2  0
  3  5  2  0
 16 17  1  0
 17 18  1  0
 18 19  1  0
 19  4  1  0
  1 10  1  1
 16 20  1  1
  1  3  1  0
 20 21  2  0
 10 11  1  0
 20 22  1  0
 11 12  1  0
 22 23  1  0
  2  6  1  0
 23 24  2  0
  1  2  1  0
 23 25  1  0
  6  7  1  0
 25 26  1  0
  3  4  1  0
 26 27  1  0
 12 13  1  0
 27 28  1  0
 13 14  1  0
 28 29  2  0
 14 15  1  0
 29 30  1  0
 15 11  1  0
 30 31  2  0
 16  4  1  0
 31 32  1  0
  6  8  1  0
 32 33  2  0
 33 28  1  0
M  END
> <Name>
Untitled_47

> <OBJECTID>
9223372084102692875

> <From>
www.bindingDB.org

> <BindingDB Reactant_set_id>
50935662

> <Ligand InChI>
InChI=1S/C23H33N5O5/c29-16-27(33)15-19(14-18-4-1-2-5-18)22(31)28-13-3-6-20(28)21(30)26-23(32)25-12-9-17-7-10-24-11-8-17/h7-8,10-11,16,18-20,33H,1-6,9,12-15H2,(H2,25,26,30,32)/t19-,20+/m1/s1

> <Ligand InChI Key>
ODZRPFPJLJDKLB-UXHICEINSA-N

> <BindingDB MonomerID>
50383968

> <BindingDB Ligand Name>
CHEMBL2032140

> <Target Name>
Peptide deformylase

> <Target Source Organism According to Curator or DataSource>
Streptococcus pneumoniae serotype 4 (strain ATCC BAA-334 / TIGR4)

> <Ki (nM)>
nan

> <IC50 (nM)>
0.35

> <Kd (nM)>
nan

> <EC50 (nM)>
nan

> <kon (M-1-s-1)>
nan

> <koff (s-1)>
nan

> <pH>
nan

> <Temp C>
nan

> <Curation/DataSource>
ChEMBL

> <Article DOI>
10.1016/j.bmcl.2012.04.086

> <BindingDB Entry DOI>
10.7270/Q2K64K3V

> <PMID>
22579486

> <PubChem AID>
<NA>

> <Patent Number>
nan

> <Authors>
Axten, JM; Medina, JR; Blackledge, CW; Duquenne, C; Grant, SW; Bobko, MA; Peng, T; Miller, WH; Pinckney, T; Gallagher, TF; Kulkarni, S; Lewandowski, T; Van Aller, GS; Zonis, R; Ward, P; Campobasso, N

> <Date of publication>
5/29/2012

> <Date in BindingDB>
2/7/2013

> <Institution>
GlaxoSmithKline

> <Link to Ligand in BindingDB>
http://www.bindingdb.org/bind/chemsearch/marvin/MolStructure.jsp?monomerid=50383968

> <Link to Ligand-Target Pair in BindingDB>
http://www.bindingdb.org/jsp/dbsearch/PrimarySearch_ki.jsp?energyterm=kJ/mole&tag=r21&monomerid=50383968&enzyme=Peptide+deformylase&column=ki&startPg=0&Increment=50&submit=Search

> <Ligand HET ID in PDB>
<NA>

> <PDB ID(s) for Ligand-Target Complex>
<NA>

> <PubChem CID of Ligand>
57878131

> <PubChem SID of Ligand>
160863051

> <ChEBI ID of Ligand>
nan

> <ChEMBL ID of Ligand>
CHEMBL2032140

> <DrugBank ID of Ligand>
<NA>

> <IUPHAR_GRAC ID of Ligand>
nan

> <KEGG ID of Ligand>
<NA>

> <ZINC ID of Ligand>
ZINC84654172

> <Number of Protein Chains in Target (bigger than 1 implies a multichain complex)>
1

> <BindingDB Target Chain Sequence>
MSAIERITKAAHLIDMNDIIREGNPTLRAIAEEVTFPLSDQEIILGEKMMQFLKHSQDPVMAEKMGLRGGVGLAAPQLDISKRIIAVLVPNIVEEGETPQEAYDLEAIMYNPKIVSHSVQDAALGEGEGCLSVDRNVPGYVVRHARVTVDYFDKDGEKHRIKLKGYNSIVVQHEIDHINGIMFYDRINEKDPFAVKDGLL
ILE

> <PDB ID(s) of Target Chain>
<NA>

> <UniProt (SwissProt) Recommended Name of Target Chain>
Peptide deformylase

> <UniProt (SwissProt) Entry Name of Target Chain>
DEF_STRPN

> <UniProt (SwissProt) Primary ID of Target Chain>
Q9F2F0

> <UniProt (SwissProt) Secondary ID(s) of Target Chain>
<NA>

> <UniProt (SwissProt) Alternative ID(s) of Target Chain>
nan

> <UniProt (TrEMBL) Submitted Name of Target Chain>
<NA>

> <UniProt (TrEMBL) Entry Name of Target Chain>
<NA>

> <UniProt (TrEMBL) Primary ID of Target Chain>
<NA>

> <UniProt (TrEMBL) Secondary ID(s) of Target Chain>
nan

> <UniProt (TrEMBL) Alternative ID(s) of Target Chain>
nan

> <pIC50>
0.4559

> <Num_H_Donors_Lipinski>
3

> <Num_H_Acceptors_Lipinski>
10

> <Molecular_Weight>
459.53862

> <ALogP>
1.179

> <Num_RotatableBonds>
9

> <Molecular_PolarSurfaceArea>
131.94

> <Num_H_Acceptors>
6

> <Num_H_Donors>
3

> <Num_Rings>
3

> <Num_AromaticRings>
1

> <Molecular_FractionalPolarSurfaceArea>
0.293

> <Activity_Bin>
9

> <PLSTempModel>
0.159313950708067

> <PLSTempModel_Residuals>
0.296586049291933

$$$$
Untitled_44
  SciTegic11182514132D

 31 33  0  0  0  0            999 V2000
    8.8167  -24.4083    0.0000 C   0  0  2  0  0  0
    9.5311  -23.9958    0.0000 C   0  0
    8.1022  -23.9958    0.0000 C   0  0
    7.3877  -24.4083    0.0000 N   0  0
    8.1022  -23.1708    0.0000 O   0  0
   10.2456  -24.4083    0.0000 N   0  0
   10.9601  -23.9958    0.0000 C   0  0
   10.2456  -25.2333    0.0000 O   0  0
   10.9601  -23.1708    0.0000 O   0  0
    8.8173  -25.2333    0.0000 C   0  0
    8.1424  -25.7082    0.0000 C   0  0
    7.3597  -25.4408    0.0000 C   0  0
    6.8648  -26.1009    0.0000 C   0  0
    7.3397  -26.7756    0.0000 C   0  0
    8.1280  -26.5323    0.0000 C   0  0
    6.6301  -24.0710    0.0000 C   0  0  1  0  0  0
    6.0781  -24.6841    0.0000 C   0  0
    6.4906  -25.3986    0.0000 C   0  0
    7.2975  -25.2270    0.0000 C   0  0
    6.4586  -23.2641    0.0000 C   0  0
    7.0717  -22.7120    0.0000 O   0  0
    5.6740  -23.0091    0.0000 N   0  0
    5.5025  -22.2021    0.0000 C   0  0
    6.1156  -21.6501    0.0000 O   0  0
    4.7178  -21.9472    0.0000 O   0  0
    4.5463  -21.1402    0.0000 C   0  0
    5.1596  -20.5914    0.0000 C   0  0
    4.9907  -19.7876    0.0000 C   0  0
    4.2071  -19.5285    0.0000 C   0  0
    3.5920  -20.0797    0.0000 C   0  0
    3.7605  -20.8900    0.0000 C   0  0
 16  4  1  0
  6  8  1  0
  7  9  2  0
  3  5  2  0
 16 17  1  0
 17 18  1  0
 18 19  1  0
 19  4  1  0
  1 10  1  1
 16 20  1  1
  1  3  1  0
 20 21  2  0
 10 11  1  0
 20 22  1  0
 11 12  1  0
 22 23  1  0
  2  6  1  0
 23 24  2  0
  1  2  1  0
 23 25  1  0
  6  7  1  0
 25 26  1  0
 26 27  1  0
  3  4  1  0
 12 13  1  0
 13 14  1  0
 14 15  1  0
 15 11  1  0
 26 31  1  0
 27 28  1  0
 28 29  1  0
 29 30  1  0
 30 31  1  0
M  END
> <Name>
Untitled_44

> <OBJECTID>
9223372071217790987

> <From>
www.bindingDB.org

> <BindingDB Reactant_set_id>
50935648

> <Ligand InChI>
InChI=1S/C22H35N3O6/c26-15-24(30)14-17(13-16-7-4-5-8-16)21(28)25-12-6-11-19(25)20(27)23-22(29)31-18-9-2-1-3-10-18/h15-19,30H,1-14H2,(H,23,27,29)/t17-,19+/m1/s1

> <Ligand InChI Key>
KORMDLJAEKFPQK-MJGOQNOKSA-N

> <BindingDB MonomerID>
50383988

> <BindingDB Ligand Name>
CHEMBL2032126

> <Target Name>
Peptide deformylase

> <Target Source Organism According to Curator or DataSource>
Streptococcus pneumoniae serotype 4 (strain ATCC BAA-334 / TIGR4)

> <Ki (nM)>
nan

> <IC50 (nM)>
0.3

> <Kd (nM)>
nan

> <EC50 (nM)>
nan

> <kon (M-1-s-1)>
nan

> <koff (s-1)>
nan

> <pH>
nan

> <Temp C>
nan

> <Curation/DataSource>
ChEMBL

> <Article DOI>
10.1016/j.bmcl.2012.04.086

> <BindingDB Entry DOI>
10.7270/Q2K64K3V

> <PMID>
22579486

> <PubChem AID>
<NA>

> <Patent Number>
nan

> <Authors>
Axten, JM; Medina, JR; Blackledge, CW; Duquenne, C; Grant, SW; Bobko, MA; Peng, T; Miller, WH; Pinckney, T; Gallagher, TF; Kulkarni, S; Lewandowski, T; Van Aller, GS; Zonis, R; Ward, P; Campobasso, N

> <Date of publication>
5/29/2012

> <Date in BindingDB>
2/7/2013

> <Institution>
GlaxoSmithKline

> <Link to Ligand in BindingDB>
http://www.bindingdb.org/bind/chemsearch/marvin/MolStructure.jsp?monomerid=50383988

> <Link to Ligand-Target Pair in BindingDB>
http://www.bindingdb.org/jsp/dbsearch/PrimarySearch_ki.jsp?energyterm=kJ/mole&tag=r21&monomerid=50383988&enzyme=Peptide+deformylase&column=ki&startPg=0&Increment=50&submit=Search

> <Ligand HET ID in PDB>
<NA>

> <PDB ID(s) for Ligand-Target Complex>
<NA>

> <PubChem CID of Ligand>
16036160

> <PubChem SID of Ligand>
160863071

> <ChEBI ID of Ligand>
nan

> <ChEMBL ID of Ligand>
CHEMBL2032126

> <DrugBank ID of Ligand>
<NA>

> <IUPHAR_GRAC ID of Ligand>
nan

> <KEGG ID of Ligand>
<NA>

> <ZINC ID of Ligand>
ZINC34874149

> <Number of Protein Chains in Target (bigger than 1 implies a multichain complex)>
1

> <BindingDB Target Chain Sequence>
MSAIERITKAAHLIDMNDIIREGNPTLRAIAEEVTFPLSDQEIILGEKMMQFLKHSQDPVMAEKMGLRGGVGLAAPQLDISKRIIAVLVPNIVEEGETPQEAYDLEAIMYNPKIVSHSVQDAALGEGEGCLSVDRNVPGYVVRHARVTVDYFDKDGEKHRIKLKGYNSIVVQHEIDHINGIMFYDRINEKDPFAVKDGLL
ILE

> <PDB ID(s) of Target Chain>
<NA>

> <UniProt (SwissProt) Recommended Name of Target Chain>
Peptide deformylase

> <UniProt (SwissProt) Entry Name of Target Chain>
DEF_STRPN

> <UniProt (SwissProt) Primary ID of Target Chain>
Q9F2F0

> <UniProt (SwissProt) Secondary ID(s) of Target Chain>
<NA>

> <UniProt (SwissProt) Alternative ID(s) of Target Chain>
nan

> <UniProt (TrEMBL) Submitted Name of Target Chain>
<NA>

> <UniProt (TrEMBL) Entry Name of Target Chain>
<NA>

> <UniProt (TrEMBL) Primary ID of Target Chain>
<NA>

> <UniProt (TrEMBL) Secondary ID(s) of Target Chain>
nan

> <UniProt (TrEMBL) Alternative ID(s) of Target Chain>
nan

> <pIC50>
0.5229

> <Num_H_Donors_Lipinski>
2

> <Num_H_Acceptors_Lipinski>
9

> <Molecular_Weight>
437.5298

> <ALogP>
2.93

> <Num_RotatableBonds>
8

> <Molecular_PolarSurfaceArea>
116.25

> <Num_H_Acceptors>
6

> <Num_H_Donors>
2

> <Num_Rings>
3

> <Num_AromaticRings>
0

> <Molecular_FractionalPolarSurfaceArea>
0.274

> <Activity_Bin>
9

> <PLSTempModel>
0.112723631418707

> <PLSTempModel_Residuals>
0.410176368581293

$$$$
Untitled_195
  SciTegic11182514132D

 29 31  0  0  0  0            999 V2000
   34.7792  -15.6000    0.0000 C   0  0  2  0  0  0
   35.4936  -15.1875    0.0000 C   0  0
   34.0647  -15.1875    0.0000 C   0  0
   33.3502  -15.6000    0.0000 N   0  0
   34.0647  -14.3625    0.0000 O   0  0
   36.2081  -15.6000    0.0000 N   0  0
   36.9226  -15.1875    0.0000 C   0  0
   36.2081  -16.4250    0.0000 O   0  0
   36.9226  -14.3625    0.0000 O   0  0
   34.7798  -16.4249    0.0000 C   0  0
   34.1049  -16.8999    0.0000 C   0  0
   33.3222  -16.6325    0.0000 C   0  0
   32.8273  -17.2926    0.0000 C   0  0
   33.3022  -17.9673    0.0000 C   0  0
   34.0905  -17.7240    0.0000 C   0  0
   32.5926  -15.2627    0.0000 C   0  0  1  0  0  0
   32.0406  -15.8758    0.0000 C   0  0
   32.4531  -16.5903    0.0000 C   0  0
   33.2600  -16.4187    0.0000 C   0  0
   32.4211  -14.4557    0.0000 C   0  0
   33.0342  -13.9037    0.0000 O   0  0
   31.6365  -14.2008    0.0000 N   0  0
   31.4650  -13.3938    0.0000 C   0  0
   32.0781  -12.8418    0.0000 O   0  0
   30.6803  -13.1389    0.0000 O   0  0
   30.5088  -12.3319    0.0000 C   0  0
   30.9570  -11.6429    0.0000 C   0  0
   30.2651  -11.1935    0.0000 C   0  0
   29.8157  -11.8854    0.0000 C   0  0
 14 15  1  0
 15 11  1  0
 16  4  1  0
  6  8  1  0
  7  9  2  0
  3  5  2  0
 16 17  1  0
 17 18  1  0
 18 19  1  0
 19  4  1  0
  1 10  1  1
 16 20  1  1
  1  3  1  0
 20 21  2  0
 10 11  1  0
 20 22  1  0
 11 12  1  0
 22 23  1  0
  2  6  1  0
 23 24  2  0
  1  2  1  0
 23 25  1  0
  6  7  1  0
 25 26  1  0
 26 27  1  0
  3  4  1  0
 12 13  1  0
 13 14  1  0
 27 28  1  0
 28 29  1  0
 29 26  1  0
M  END
> <Name>
Untitled_195

> <OBJECTID>
9223372135642300427

> <From>
www.bindingDB.org

> <BindingDB Reactant_set_id>
50935646

> <Ligand InChI>
InChI=1S/C20H31N3O6/c24-13-22(28)12-15(11-14-5-1-2-6-14)19(26)23-10-4-9-17(23)18(25)21-20(27)29-16-7-3-8-16/h13-17,28H,1-12H2,(H,21,25,27)/t15-,17+/m1/s1

> <Ligand InChI Key>
ZMVIFABCNJMSMZ-WBVHZDCISA-N

> <BindingDB MonomerID>
50383986

> <BindingDB Ligand Name>
CHEMBL2032124

> <Target Name>
Peptide deformylase

> <Target Source Organism According to Curator or DataSource>
Streptococcus pneumoniae serotype 4 (strain ATCC BAA-334 / TIGR4)

> <Ki (nM)>
nan

> <IC50 (nM)>
0.51

> <Kd (nM)>
nan

> <EC50 (nM)>
nan

> <kon (M-1-s-1)>
nan

> <koff (s-1)>
nan

> <pH>
nan

> <Temp C>
nan

> <Curation/DataSource>
ChEMBL

> <Article DOI>
10.1016/j.bmcl.2012.04.086

> <BindingDB Entry DOI>
10.7270/Q2K64K3V

> <PMID>
22579486

> <PubChem AID>
<NA>

> <Patent Number>
nan

> <Authors>
Axten, JM; Medina, JR; Blackledge, CW; Duquenne, C; Grant, SW; Bobko, MA; Peng, T; Miller, WH; Pinckney, T; Gallagher, TF; Kulkarni, S; Lewandowski, T; Van Aller, GS; Zonis, R; Ward, P; Campobasso, N

> <Date of publication>
5/29/2012

> <Date in BindingDB>
2/7/2013

> <Institution>
GlaxoSmithKline

> <Link to Ligand in BindingDB>
http://www.bindingdb.org/bind/chemsearch/marvin/MolStructure.jsp?monomerid=50383986

> <Link to Ligand-Target Pair in BindingDB>
http://www.bindingdb.org/jsp/dbsearch/PrimarySearch_ki.jsp?energyterm=kJ/mole&tag=r21&monomerid=50383986&enzyme=Peptide+deformylase&column=ki&startPg=0&Increment=50&submit=Search

> <Ligand HET ID in PDB>
<NA>

> <PDB ID(s) for Ligand-Target Complex>
<NA>

> <PubChem CID of Ligand>
16036281

> <PubChem SID of Ligand>
160863069

> <ChEBI ID of Ligand>
nan

> <ChEMBL ID of Ligand>
CHEMBL2032124

> <DrugBank ID of Ligand>
<NA>

> <IUPHAR_GRAC ID of Ligand>
nan

> <KEGG ID of Ligand>
<NA>

> <ZINC ID of Ligand>
ZINC34874246

> <Number of Protein Chains in Target (bigger than 1 implies a multichain complex)>
1

> <BindingDB Target Chain Sequence>
MSAIERITKAAHLIDMNDIIREGNPTLRAIAEEVTFPLSDQEIILGEKMMQFLKHSQDPVMAEKMGLRGGVGLAAPQLDISKRIIAVLVPNIVEEGETPQEAYDLEAIMYNPKIVSHSVQDAALGEGEGCLSVDRNVPGYVVRHARVTVDYFDKDGEKHRIKLKGYNSIVVQHEIDHINGIMFYDRINEKDPFAVKDGLL
ILE

> <PDB ID(s) of Target Chain>
<NA>

> <UniProt (SwissProt) Recommended Name of Target Chain>
Peptide deformylase

> <UniProt (SwissProt) Entry Name of Target Chain>
DEF_STRPN

> <UniProt (SwissProt) Primary ID of Target Chain>
Q9F2F0

> <UniProt (SwissProt) Secondary ID(s) of Target Chain>
<NA>

> <UniProt (SwissProt) Alternative ID(s) of Target Chain>
nan

> <UniProt (TrEMBL) Submitted Name of Target Chain>
<NA>

> <UniProt (TrEMBL) Entry Name of Target Chain>
<NA>

> <UniProt (TrEMBL) Primary ID of Target Chain>
<NA>

> <UniProt (TrEMBL) Secondary ID(s) of Target Chain>
nan

> <UniProt (TrEMBL) Alternative ID(s) of Target Chain>
nan

> <pIC50>
0.2924

> <Num_H_Donors_Lipinski>
2

> <Num_H_Acceptors_Lipinski>
9

> <Molecular_Weight>
409.47664

> <ALogP>
2.018

> <Num_RotatableBonds>
8

> <Molecular_PolarSurfaceArea>
116.25

> <Num_H_Acceptors>
6

> <Num_H_Donors>
2

> <Num_Rings>
3

> <Num_AromaticRings>
0

> <Molecular_FractionalPolarSurfaceArea>
0.297

> <Activity_Bin>
9

> <PLSTempModel>
2.86198440095489e-003

> <PLSTempModel_Residuals>
0.289538015599045

$$$$
Untitled_261
  SciTegic11182514132D

 29 31  0  0  0  0            999 V2000
   18.0583   -8.4042    0.0000 C   0  0  2  0  0  0
   18.7728   -7.9917    0.0000 C   0  0
   17.3439   -7.9917    0.0000 C   0  0
   16.6294   -8.4042    0.0000 N   0  0
   17.3439   -7.1667    0.0000 O   0  0
   19.4873   -8.4042    0.0000 N   0  0
   20.2017   -7.9917    0.0000 C   0  0
   19.4873   -9.2292    0.0000 O   0  0
   20.2017   -7.1667    0.0000 O   0  0
   18.0590   -9.2291    0.0000 C   0  0
   17.3841   -9.7040    0.0000 C   0  0
   16.6014   -9.4367    0.0000 C   0  0
   16.1065  -10.0968    0.0000 C   0  0
   16.5814  -10.7715    0.0000 C   0  0
   17.3697  -10.5282    0.0000 C   0  0
   15.8718   -8.0669    0.0000 C   0  0  1  0  0  0
   15.3198   -8.6800    0.0000 C   0  0
   15.7323   -9.3945    0.0000 C   0  0
   16.5392   -9.2228    0.0000 C   0  0
   15.7003   -7.2599    0.0000 C   0  0
   16.3134   -6.7079    0.0000 O   0  0
   14.9157   -7.0049    0.0000 N   0  0
   14.7441   -6.1980    0.0000 C   0  0
   13.9595   -5.9430    0.0000 C   0  0
   15.3572   -5.6459    0.0000 O   0  0
   13.7036   -5.1602    0.0000 C   0  0
   12.8786   -5.1602    0.0000 C   0  0
   12.6236   -5.9448    0.0000 C   0  0
   13.2911   -6.4296    0.0000 C   0  0
 14 15  1  0
 15 11  1  0
 16  4  1  0
  6  8  1  0
  7  9  2  0
  3  5  2  0
 16 17  1  0
 17 18  1  0
 18 19  1  0
 19  4  1  0
  1 10  1  1
 16 20  1  1
  1  3  1  0
 20 21  2  0
 10 11  1  0
 20 22  1  0
 11 12  1  0
 22 23  1  0
  2  6  1  0
 23 24  1  0
  1  2  1  0
 23 25  2  0
 24 26  1  0
  6  7  1  0
  3  4  1  0
 12 13  1  0
 13 14  1  0
 26 27  1  0
 27 28  1  0
 28 29  1  0
 29 24  1  0
M  END
> <Name>
Untitled_261

> <OBJECTID>
9223372260196352011

> <From>
www.bindingDB.org

> <BindingDB Reactant_set_id>
50935677

> <Ligand InChI>
InChI=1S/C21H33N3O5/c25-14-23(29)13-17(12-15-6-1-2-7-15)21(28)24-11-5-10-18(24)20(27)22-19(26)16-8-3-4-9-16/h14-18,29H,1-13H2,(H,22,26,27)/t17-,18+/m1/s1

> <Ligand InChI Key>
XEKDFJCAHRHGGH-MSOLQXFVSA-N

> <BindingDB MonomerID>
50383980

> <BindingDB Ligand Name>
CHEMBL2032117

> <Target Name>
Peptide deformylase

> <Target Source Organism According to Curator or DataSource>
Staphylococcus aureus

> <Ki (nM)>
nan

> <IC50 (nM)>
2.5

> <Kd (nM)>
nan

> <EC50 (nM)>
nan

> <kon (M-1-s-1)>
nan

> <koff (s-1)>
nan

> <pH>
nan

> <Temp C>
nan

> <Curation/DataSource>
ChEMBL

> <Article DOI>
10.1016/j.bmcl.2012.04.086

> <BindingDB Entry DOI>
10.7270/Q2K64K3V

> <PMID>
22579486

> <PubChem AID>
<NA>

> <Patent Number>
nan

> <Authors>
Axten, JM; Medina, JR; Blackledge, CW; Duquenne, C; Grant, SW; Bobko, MA; Peng, T; Miller, WH; Pinckney, T; Gallagher, TF; Kulkarni, S; Lewandowski, T; Van Aller, GS; Zonis, R; Ward, P; Campobasso, N

> <Date of publication>
5/29/2012

> <Date in BindingDB>
2/7/2013

> <Institution>
GlaxoSmithKline

> <Link to Ligand in BindingDB>
http://www.bindingdb.org/bind/chemsearch/marvin/MolStructure.jsp?monomerid=50383980

> <Link to Ligand-Target Pair in BindingDB>
http://www.bindingdb.org/jsp/dbsearch/PrimarySearch_ki.jsp?energyterm=kJ/mole&tag=r21&monomerid=50383980&enzyme=Peptide+deformylase&column=ki&startPg=0&Increment=50&submit=Search

> <Ligand HET ID in PDB>
<NA>

> <PDB ID(s) for Ligand-Target Complex>
<NA>

> <PubChem CID of Ligand>
16034963

> <PubChem SID of Ligand>
160863063

> <ChEBI ID of Ligand>
nan

> <ChEMBL ID of Ligand>
CHEMBL2032117

> <DrugBank ID of Ligand>
<NA>

> <IUPHAR_GRAC ID of Ligand>
nan

> <KEGG ID of Ligand>
<NA>

> <ZINC ID of Ligand>
ZINC34872980

> <Number of Protein Chains in Target (bigger than 1 implies a multichain complex)>
1

> <BindingDB Target Chain Sequence>
MLTMKDIIRD GHPTLRQKAA ELELPLTKEE KETLIAMREF LVNSQDEEIA
KRYGLRSGVG LAAPQINISK RMIAVLIPDD GSGKSYDYML VNPKIVSHSV
QEAYLPTGEG CLSVDDNVAG LVHRHNRITI KAKDIEGNDI QLRLKGYPAI
VFQHEIDHLN GVMFYDHIDK NHPLQPHTDA VEV

> <PDB ID(s) of Target Chain>
1LM4,1LMH,1LQW,2AI9,6JFG,6JFO,6JFQ,6JFR,6JFS

> <UniProt (SwissProt) Recommended Name of Target Chain>
Peptide deformylase

> <UniProt (SwissProt) Entry Name of Target Chain>
DEF_STAAM

> <UniProt (SwissProt) Primary ID of Target Chain>
P68825

> <UniProt (SwissProt) Secondary ID(s) of Target Chain>
Q9F4L4

> <UniProt (SwissProt) Alternative ID(s) of Target Chain>
nan

> <UniProt (TrEMBL) Submitted Name of Target Chain>
<NA>

> <UniProt (TrEMBL) Entry Name of Target Chain>
<NA>

> <UniProt (TrEMBL) Primary ID of Target Chain>
<NA>

> <UniProt (TrEMBL) Secondary ID(s) of Target Chain>
nan

> <UniProt (TrEMBL) Alternative ID(s) of Target Chain>
nan

> <pIC50>
-0.3979

> <Num_H_Donors_Lipinski>
2

> <Num_H_Acceptors_Lipinski>
8

> <Molecular_Weight>
407.50382

> <ALogP>
2.099

> <Num_RotatableBonds>
7

> <Molecular_PolarSurfaceArea>
107.02

> <Num_H_Acceptors>
5

> <Num_H_Donors>
2

> <Num_Rings>
3

> <Num_AromaticRings>
0

> <Molecular_FractionalPolarSurfaceArea>
0.27

> <Activity_Bin>
7

> <PLSTempModel>
-0.170116023059881

> <PLSTempModel_Residuals>
-0.227783976940119

$$$$
Untitled_275
  SciTegic11182514132D

 30 32  0  0  0  0            999 V2000
   27.0458   -8.3417    0.0000 C   0  0  2  0  0  0
   27.7603   -7.9292    0.0000 C   0  0
   26.3314   -7.9292    0.0000 C   0  0
   25.6169   -8.3417    0.0000 N   0  0
   26.3314   -7.1042    0.0000 O   0  0
   28.4748   -8.3417    0.0000 N   0  0
   29.1892   -7.9292    0.0000 C   0  0
   28.4748   -9.1667    0.0000 O   0  0
   29.1892   -7.1042    0.0000 O   0  0
   27.0465   -9.1666    0.0000 C   0  0
   26.3716   -9.6415    0.0000 C   0  0
   25.5889   -9.3742    0.0000 C   0  0
   25.0940  -10.0343    0.0000 C   0  0
   25.5689  -10.7090    0.0000 C   0  0
   26.3572  -10.4657    0.0000 C   0  0
   24.8593   -8.0044    0.0000 C   0  0  1  0  0  0
   24.3073   -8.6175    0.0000 C   0  0
   24.7198   -9.3320    0.0000 C   0  0
   25.5267   -9.1603    0.0000 C   0  0
   24.6878   -7.1974    0.0000 C   0  0
   25.3009   -6.6454    0.0000 O   0  0
   23.9032   -6.9424    0.0000 N   0  0
   23.7316   -6.1355    0.0000 C   0  0
   22.9470   -5.8805    0.0000 C   0  0
   24.3447   -5.5834    0.0000 O   0  0
   22.7788   -5.0734    0.0000 C   0  0
   21.9982   -4.8177    0.0000 C   0  0
   21.3820   -5.3668    0.0000 C   0  0
   21.5518   -6.1751    0.0000 C   0  0
   22.3378   -6.4344    0.0000 C   0  0
 15 11  1  0
 16  4  1  0
  6  8  1  0
  7  9  2  0
  3  5  2  0
 16 17  1  0
 17 18  1  0
 18 19  1  0
 19  4  1  0
  1 10  1  1
 16 20  1  1
  1  3  1  0
 20 21  2  0
 10 11  1  0
 20 22  1  0
 11 12  1  0
 22 23  1  0
  2  6  1  0
 23 24  1  0
  1  2  1  0
 23 25  2  0
 24 26  1  0
  6  7  1  0
  3  4  1  0
 12 13  1  0
 13 14  1  0
 14 15  1  0
 24 30  1  0
 26 27  1  0
 27 28  1  0
 28 29  1  0
 29 30  1  0
M  END
> <Name>
Untitled_275

> <OBJECTID>
9223372277376221195

> <From>
www.bindingDB.org

> <BindingDB Reactant_set_id>
50935678

> <Ligand InChI>
InChI=1S/C22H35N3O5/c26-15-24(30)14-18(13-16-7-4-5-8-16)22(29)25-12-6-11-19(25)21(28)23-20(27)17-9-2-1-3-10-17/h15-19,30H,1-14H2,(H,23,27,28)/t18-,19+/m1/s1

> <Ligand InChI Key>
QHQGTBCSLAVMEP-MOPGFXCFSA-N

> <BindingDB MonomerID>
50383981

> <BindingDB Ligand Name>
CHEMBL2032118

> <Target Name>
Peptide deformylase

> <Target Source Organism According to Curator or DataSource>
Staphylococcus aureus

> <Ki (nM)>
nan

> <IC50 (nM)>
3.7

> <Kd (nM)>
nan

> <EC50 (nM)>
nan

> <kon (M-1-s-1)>
nan

> <koff (s-1)>
nan

> <pH>
nan

> <Temp C>
nan

> <Curation/DataSource>
ChEMBL

> <Article DOI>
10.1016/j.bmcl.2012.04.086

> <BindingDB Entry DOI>
10.7270/Q2K64K3V

> <PMID>
22579486

> <PubChem AID>
<NA>

> <Patent Number>
nan

> <Authors>
Axten, JM; Medina, JR; Blackledge, CW; Duquenne, C; Grant, SW; Bobko, MA; Peng, T; Miller, WH; Pinckney, T; Gallagher, TF; Kulkarni, S; Lewandowski, T; Van Aller, GS; Zonis, R; Ward, P; Campobasso, N

> <Date of publication>
5/29/2012

> <Date in BindingDB>
2/7/2013

> <Institution>
GlaxoSmithKline

> <Link to Ligand in BindingDB>
http://www.bindingdb.org/bind/chemsearch/marvin/MolStructure.jsp?monomerid=50383981

> <Link to Ligand-Target Pair in BindingDB>
http://www.bindingdb.org/jsp/dbsearch/PrimarySearch_ki.jsp?energyterm=kJ/mole&tag=r21&monomerid=50383981&enzyme=Peptide+deformylase&column=ki&startPg=0&Increment=50&submit=Search

> <Ligand HET ID in PDB>
<NA>

> <PDB ID(s) for Ligand-Target Complex>
<NA>

> <PubChem CID of Ligand>
16036661

> <PubChem SID of Ligand>
160863064

> <ChEBI ID of Ligand>
nan

> <ChEMBL ID of Ligand>
CHEMBL2032118

> <DrugBank ID of Ligand>
<NA>

> <IUPHAR_GRAC ID of Ligand>
nan

> <KEGG ID of Ligand>
<NA>

> <ZINC ID of Ligand>
ZINC34874570

> <Number of Protein Chains in Target (bigger than 1 implies a multichain complex)>
1

> <BindingDB Target Chain Sequence>
MLTMKDIIRD GHPTLRQKAA ELELPLTKEE KETLIAMREF LVNSQDEEIA
KRYGLRSGVG LAAPQINISK RMIAVLIPDD GSGKSYDYML VNPKIVSHSV
QEAYLPTGEG CLSVDDNVAG LVHRHNRITI KAKDIEGNDI QLRLKGYPAI
VFQHEIDHLN GVMFYDHIDK NHPLQPHTDA VEV

> <PDB ID(s) of Target Chain>
1LM4,1LMH,1LQW,2AI9,6JFG,6JFO,6JFQ,6JFR,6JFS

> <UniProt (SwissProt) Recommended Name of Target Chain>
Peptide deformylase

> <UniProt (SwissProt) Entry Name of Target Chain>
DEF_STAAM

> <UniProt (SwissProt) Primary ID of Target Chain>
P68825

> <UniProt (SwissProt) Secondary ID(s) of Target Chain>
Q9F4L4

> <UniProt (SwissProt) Alternative ID(s) of Target Chain>
nan

> <UniProt (TrEMBL) Submitted Name of Target Chain>
<NA>

> <UniProt (TrEMBL) Entry Name of Target Chain>
<NA>

> <UniProt (TrEMBL) Primary ID of Target Chain>
<NA>

> <UniProt (TrEMBL) Secondary ID(s) of Target Chain>
nan

> <UniProt (TrEMBL) Alternative ID(s) of Target Chain>
nan

> <pIC50>
-0.5682

> <Num_H_Donors_Lipinski>
2

> <Num_H_Acceptors_Lipinski>
8

> <Molecular_Weight>
421.5304

> <ALogP>
2.555

> <Num_RotatableBonds>
7

> <Molecular_PolarSurfaceArea>
107.02

> <Num_H_Acceptors>
5

> <Num_H_Donors>
2

> <Num_Rings>
3

> <Num_AromaticRings>
0

> <Molecular_FractionalPolarSurfaceArea>
0.26

> <Activity_Bin>
7

> <PLSTempModel>
-0.115066925697494

> <PLSTempModel_Residuals>
-0.453133074302506

$$$$
Untitled_224
  SciTegic11182514132D

 33 35  0  0  0  0            999 V2000
   34.3000  -15.0500    0.0000 C   0  0  2  0  0  0
   35.0145  -14.6375    0.0000 C   0  0
   33.5855  -14.6375    0.0000 C   0  0
   32.8711  -15.0500    0.0000 N   0  0
   33.5855  -13.8125    0.0000 O   0  0
   35.7289  -15.0500    0.0000 N   0  0
   36.4434  -14.6375    0.0000 C   0  0
   35.7289  -15.8750    0.0000 O   0  0
   36.4434  -13.8125    0.0000 O   0  0
   34.3007  -15.8749    0.0000 C   0  0
   33.6257  -16.3499    0.0000 C   0  0
   32.8430  -16.0825    0.0000 C   0  0
   32.3482  -16.7426    0.0000 C   0  0
   32.8231  -17.4173    0.0000 C   0  0
   33.6114  -17.1740    0.0000 C   0  0
   32.1135  -14.7127    0.0000 C   0  0  1  0  0  0
   31.5614  -15.3258    0.0000 C   0  0
   31.9740  -16.0403    0.0000 C   0  0
   32.7809  -15.8687    0.0000 C   0  0
   31.9419  -13.9057    0.0000 C   0  0
   32.5550  -13.3537    0.0000 O   0  0
   31.1573  -13.6508    0.0000 N   0  0
   30.9858  -12.8438    0.0000 C   0  0
   31.5989  -12.2918    0.0000 O   0  0
   30.2012  -12.5889    0.0000 N   0  0
   30.0297  -11.7819    0.0000 C   0  0
   30.6427  -11.2299    0.0000 C   0  0
   30.4712  -10.4229    0.0000 C   0  0
   31.0857   -9.8739    0.0000 C   0  0
   30.9147   -9.0676    0.0000 N   0  0
   30.1294   -8.8119    0.0000 C   0  0
   29.5149   -9.3688    0.0000 C   0  0
   29.6891  -10.1730    0.0000 N   0  0
  7  9  2  0
  3  5  2  0
 16 17  1  0
 17 18  1  0
 18 19  1  0
 19  4  1  0
  1 10  1  1
 16 20  1  1
  1  3  1  0
 20 21  2  0
 10 11  1  0
 20 22  1  0
 11 12  1  0
 22 23  1  0
  2  6  1  0
 23 24  2  0
  1  2  1  0
 23 25  1  0
  6  7  1  0
 25 26  1  0
  3  4  1  0
 26 27  1  0
 12 13  1  0
 27 28  1  0
 13 14  1  0
 28 29  2  0
 14 15  1  0
 29 30  1  0
 15 11  1  0
 30 31  2  0
 16  4  1  0
 31 32  1  0
  6  8  1  0
 32 33  2  0
 33 28  1  0
M  END
> <Name>
Untitled_224

> <OBJECTID>
9223372208656744459

> <From>
www.bindingDB.org

> <BindingDB Reactant_set_id>
50935627

> <Ligand InChI>
InChI=1S/C22H32N6O5/c29-15-27(33)14-17(12-16-4-1-2-5-16)21(31)28-11-3-6-19(28)20(30)26-22(32)25-8-7-18-13-23-9-10-24-18/h9-10,13,15-17,19,33H,1-8,11-12,14H2,(H2,25,26,30,32)/t17-,19+/m1/s1

> <Ligand InChI Key>
VZDZRBPANNWEDI-MJGOQNOKSA-N

> <BindingDB MonomerID>
50383969

> <BindingDB Ligand Name>
CHEMBL2032143

> <Target Name>
Peptide deformylase

> <Target Source Organism According to Curator or DataSource>
Staphylococcus aureus

> <Ki (nM)>
nan

> <IC50 (nM)>
1.4

> <Kd (nM)>
nan

> <EC50 (nM)>
nan

> <kon (M-1-s-1)>
nan

> <koff (s-1)>
nan

> <pH>
nan

> <Temp C>
nan

> <Curation/DataSource>
ChEMBL

> <Article DOI>
10.1016/j.bmcl.2012.04.086

> <BindingDB Entry DOI>
10.7270/Q2K64K3V

> <PMID>
22579486

> <PubChem AID>
<NA>

> <Patent Number>
nan

> <Authors>
Axten, JM; Medina, JR; Blackledge, CW; Duquenne, C; Grant, SW; Bobko, MA; Peng, T; Miller, WH; Pinckney, T; Gallagher, TF; Kulkarni, S; Lewandowski, T; Van Aller, GS; Zonis, R; Ward, P; Campobasso, N

> <Date of publication>
5/29/2012

> <Date in BindingDB>
2/7/2013

> <Institution>
GlaxoSmithKline

> <Link to Ligand in BindingDB>
http://www.bindingdb.org/bind/chemsearch/marvin/MolStructure.jsp?monomerid=50383969

> <Link to Ligand-Target Pair in BindingDB>
http://www.bindingdb.org/jsp/dbsearch/PrimarySearch_ki.jsp?energyterm=kJ/mole&tag=r21&monomerid=50383969&enzyme=Peptide+deformylase&column=ki&startPg=0&Increment=50&submit=Search

> <Ligand HET ID in PDB>
<NA>

> <PDB ID(s) for Ligand-Target Complex>
<NA>

> <PubChem CID of Ligand>
16035189

> <PubChem SID of Ligand>
160863052

> <ChEBI ID of Ligand>
nan

> <ChEMBL ID of Ligand>
CHEMBL2032143

> <DrugBank ID of Ligand>
<NA>

> <IUPHAR_GRAC ID of Ligand>
nan

> <KEGG ID of Ligand>
<NA>

> <ZINC ID of Ligand>
ZINC34873201

> <Number of Protein Chains in Target (bigger than 1 implies a multichain complex)>
1

> <BindingDB Target Chain Sequence>
MLTMKDIIRD GHPTLRQKAA ELELPLTKEE KETLIAMREF LVNSQDEEIA
KRYGLRSGVG LAAPQINISK RMIAVLIPDD GSGKSYDYML VNPKIVSHSV
QEAYLPTGEG CLSVDDNVAG LVHRHNRITI KAKDIEGNDI QLRLKGYPAI
VFQHEIDHLN GVMFYDHIDK NHPLQPHTDA VEV

> <PDB ID(s) of Target Chain>
1LM4,1LMH,1LQW,2AI9,6JFG,6JFO,6JFQ,6JFR,6JFS

> <UniProt (SwissProt) Recommended Name of Target Chain>
Peptide deformylase

> <UniProt (SwissProt) Entry Name of Target Chain>
DEF_STAAM

> <UniProt (SwissProt) Primary ID of Target Chain>
P68825

> <UniProt (SwissProt) Secondary ID(s) of Target Chain>
Q9F4L4

> <UniProt (SwissProt) Alternative ID(s) of Target Chain>
nan

> <UniProt (TrEMBL) Submitted Name of Target Chain>
<NA>

> <UniProt (TrEMBL) Entry Name of Target Chain>
<NA>

> <UniProt (TrEMBL) Primary ID of Target Chain>
<NA>

> <UniProt (TrEMBL) Secondary ID(s) of Target Chain>
nan

> <UniProt (TrEMBL) Alternative ID(s) of Target Chain>
nan

> <pIC50>
-0.1461

> <Num_H_Donors_Lipinski>
3

> <Num_H_Acceptors_Lipinski>
11

> <Molecular_Weight>
460.52668

> <ALogP>
0.17

> <Num_RotatableBonds>
9

> <Molecular_PolarSurfaceArea>
144.82

> <Num_H_Acceptors>
7

> <Num_H_Donors>
3

> <Num_Rings>
3

> <Num_AromaticRings>
1

> <Molecular_FractionalPolarSurfaceArea>
0.32

> <Activity_Bin>
8

> <PLSTempModel>
0.101042306139588

> <PLSTempModel_Residuals>
-0.247142306139588

$$$$
Untitled_258
  SciTegic11182514132D

 28 29  0  0  0  0            999 V2000
   18.1083  -22.3292    0.0000 C   0  0  2  0  0  0
   18.8228  -21.9167    0.0000 C   0  0
   17.3939  -21.9167    0.0000 C   0  0
   16.6794  -22.3292    0.0000 N   0  0
   17.3939  -21.0917    0.0000 O   0  0
   19.5373  -22.3292    0.0000 N   0  0
   20.2517  -21.9167    0.0000 C   0  0
   19.5373  -23.1542    0.0000 O   0  0
   20.2517  -21.0917    0.0000 O   0  0
   18.1090  -23.1541    0.0000 C   0  0
   17.4341  -23.6290    0.0000 C   0  0
   16.6514  -23.3617    0.0000 C   0  0
   16.1565  -24.0218    0.0000 C   0  0
   16.6314  -24.6965    0.0000 C   0  0
   17.4197  -24.4532    0.0000 C   0  0
   15.9218  -21.9919    0.0000 C   0  0  1  0  0  0
   15.3698  -22.6050    0.0000 C   0  0
   15.7823  -23.3195    0.0000 C   0  0
   16.5892  -23.1478    0.0000 C   0  0
   15.7503  -21.1849    0.0000 C   0  0
   16.3634  -20.6329    0.0000 O   0  0
   14.9657  -20.9299    0.0000 N   0  0
   14.7941  -20.1230    0.0000 C   0  0
   15.4072  -19.5709    0.0000 O   0  0
   14.0095  -19.8680    0.0000 N   0  0
   13.8380  -19.0611    0.0000 C   0  0
   13.0534  -18.8061    0.0000 C   0  0
   12.8818  -17.9992    0.0000 N   0  0
 13 14  1  0
 14 15  1  0
 15 11  1  0
 16  4  1  0
  6  8  1  0
  7  9  2  0
  3  5  2  0
 16 17  1  0
 17 18  1  0
 18 19  1  0
 19  4  1  0
  1 10  1  1
 16 20  1  1
  1  3  1  0
 20 21  2  0
 10 11  1  0
 20 22  1  0
 11 12  1  0
 22 23  1  0
  2  6  1  0
 23 24  2  0
  1  2  1  0
 23 25  1  0
  6  7  1  0
 25 26  1  0
  3  4  1  0
 26 27  1  0
 12 13  1  0
 27 28  1  0
M  END
> <Name>
Untitled_258

> <OBJECTID>
9223372251606417419

> <From>
www.bindingDB.org

> <BindingDB Reactant_set_id>
50935630

> <Ligand InChI>
InChI=1S/C18H31N5O5/c19-7-8-20-18(27)21-16(25)15-6-3-9-23(15)17(26)14(11-22(28)12-24)10-13-4-1-2-5-13/h12-15,28H,1-11,19H2,(H2,20,21,25,27)/t14-,15+/m1/s1

> <Ligand InChI Key>
AQHGRNKKKVCCCR-CABCVRRESA-N

> <BindingDB MonomerID>
50383972

> <BindingDB Ligand Name>
CHEMBL2032146

> <Target Name>
Peptide deformylase

> <Target Source Organism According to Curator or DataSource>
Staphylococcus aureus

> <Ki (nM)>
nan

> <IC50 (nM)>
2.3

> <Kd (nM)>
nan

> <EC50 (nM)>
nan

> <kon (M-1-s-1)>
nan

> <koff (s-1)>
nan

> <pH>
nan

> <Temp C>
nan

> <Curation/DataSource>
ChEMBL

> <Article DOI>
10.1016/j.bmcl.2012.04.086

> <BindingDB Entry DOI>
10.7270/Q2K64K3V

> <PMID>
22579486

> <PubChem AID>
<NA>

> <Patent Number>
nan

> <Authors>
Axten, JM; Medina, JR; Blackledge, CW; Duquenne, C; Grant, SW; Bobko, MA; Peng, T; Miller, WH; Pinckney, T; Gallagher, TF; Kulkarni, S; Lewandowski, T; Van Aller, GS; Zonis, R; Ward, P; Campobasso, N

> <Date of publication>
5/29/2012

> <Date in BindingDB>
2/7/2013

> <Institution>
GlaxoSmithKline

> <Link to Ligand in BindingDB>
http://www.bindingdb.org/bind/chemsearch/marvin/MolStructure.jsp?monomerid=50383972

> <Link to Ligand-Target Pair in BindingDB>
http://www.bindingdb.org/jsp/dbsearch/PrimarySearch_ki.jsp?energyterm=kJ/mole&tag=r21&monomerid=50383972&enzyme=Peptide+deformylase&column=ki&startPg=0&Increment=50&submit=Search

> <Ligand HET ID in PDB>
<NA>

> <PDB ID(s) for Ligand-Target Complex>
<NA>

> <PubChem CID of Ligand>
70692221

> <PubChem SID of Ligand>
160863055

> <ChEBI ID of Ligand>
nan

> <ChEMBL ID of Ligand>
CHEMBL2032146

> <DrugBank ID of Ligand>
<NA>

> <IUPHAR_GRAC ID of Ligand>
nan

> <KEGG ID of Ligand>
<NA>

> <ZINC ID of Ligand>
ZINC84654824

> <Number of Protein Chains in Target (bigger than 1 implies a multichain complex)>
1

> <BindingDB Target Chain Sequence>
MLTMKDIIRD GHPTLRQKAA ELELPLTKEE KETLIAMREF LVNSQDEEIA
KRYGLRSGVG LAAPQINISK RMIAVLIPDD GSGKSYDYML VNPKIVSHSV
QEAYLPTGEG CLSVDDNVAG LVHRHNRITI KAKDIEGNDI QLRLKGYPAI
VFQHEIDHLN GVMFYDHIDK NHPLQPHTDA VEV

> <PDB ID(s) of Target Chain>
1LM4,1LMH,1LQW,2AI9,6JFG,6JFO,6JFQ,6JFR,6JFS

> <UniProt (SwissProt) Recommended Name of Target Chain>
Peptide deformylase

> <UniProt (SwissProt) Entry Name of Target Chain>
DEF_STAAM

> <UniProt (SwissProt) Primary ID of Target Chain>
P68825

> <UniProt (SwissProt) Secondary ID(s) of Target Chain>
Q9F4L4

> <UniProt (SwissProt) Alternative ID(s) of Target Chain>
nan

> <UniProt (TrEMBL) Submitted Name of Target Chain>
<NA>

> <UniProt (TrEMBL) Entry Name of Target Chain>
<NA>

> <UniProt (TrEMBL) Primary ID of Target Chain>
<NA>

> <UniProt (TrEMBL) Secondary ID(s) of Target Chain>
nan

> <UniProt (TrEMBL) Alternative ID(s) of Target Chain>
nan

> <pIC50>
-0.3617

> <Num_H_Donors_Lipinski>
5

> <Num_H_Acceptors_Lipinski>
10

> <Molecular_Weight>
397.46924

> <ALogP>
-0.404

> <Num_RotatableBonds>
8

> <Molecular_PolarSurfaceArea>
145.07

> <Num_H_Acceptors>
6

> <Num_H_Donors>
4

> <Num_Rings>
2

> <Num_AromaticRings>
0

> <Molecular_FractionalPolarSurfaceArea>
0.364

> <Activity_Bin>
8

> <PLSTempModel>
-0.27945456712473

> <PLSTempModel_Residuals>
-8.22454328752699e-002

$$$$
Untitled_319
  SciTegic11182514132D

 28 30  0  0  0  0            999 V2000
   17.7620  -13.0792    0.0000 N   0  0
   18.4719  -12.6744    0.0000 C   0  0
   19.1774  -13.0867    0.0000 C   0  0  2  0  0  0
   18.4762  -11.8572    0.0000 O   0  0
   17.0542  -12.6601    0.0000 C   0  0  1  0  0  0
   16.3465  -13.0615    0.0000 C   0  0
   16.3380  -13.8790    0.0000 C   0  0
   17.0433  -14.2935    0.0000 C   0  0
   17.7572  -13.8905    0.0000 N   0  0
   19.1731  -13.9039    0.0000 C   0  0
   19.8873  -12.6818    0.0000 C   0  0
   20.5928  -13.0942    0.0000 N   0  0
   21.3027  -12.6893    0.0000 C   0  0
   21.3070  -11.8721    0.0000 O   0  0
   20.5885  -13.9113    0.0000 O   0  0
   18.5890  -14.4783    0.0000 C   0  0
   17.7803  -14.3479    0.0000 C   0  0
   17.4023  -15.0747    0.0000 C   0  0
   17.9768  -15.6589    0.0000 C   0  0
   18.7097  -15.2929    0.0000 C   0  0
   17.0619  -11.8429    0.0000 C   0  0
   17.7734  -11.4410    0.0000 O   0  0
   16.3580  -11.4277    0.0000 N   0  0
   16.3696  -10.6136    0.0000 C   0  0
   15.6698  -10.1985    0.0000 C   0  0
   14.9559  -10.5969    0.0000 C   0  0
   14.9463  -11.4150    0.0000 C   0  0
   15.6505  -11.8347    0.0000 C   0  0
  1  2  1  0
  2  3  1  0
  2  4  2  0
  1  5  1  0
  1  9  1  0
  5  6  1  0
  6  7  1  0
  7  8  1  0
  8  9  1  0
  3 10  1  1
  3 11  1  0
 11 12  1  0
 12 13  1  0
 13 14  2  0
 12 15  1  0
 10 16  1  0
 16 17  1  0
 17 18  1  0
 18 19  1  0
 19 20  1  0
 20 16  1  0
  5 21  1  1
 21 22  2  0
 21 23  1  0
 23 24  1  0
 23 28  1  0
 24 25  1  0
 25 26  1  0
 26 27  1  0
 27 28  1  0
M  END
> <Name>
Untitled_319

> <OBJECTID>
9223372316030926859

> <From>
www.bindingDB.org

> <BindingDB Reactant_set_id>
51323487

> <Ligand InChI>
InChI=1S/C20H34N4O4/c25-15-23(28)14-17(13-16-7-2-3-8-16)19(26)24-18(9-6-10-21-24)20(27)22-11-4-1-5-12-22/h15-18,21,28H,1-14H2/t17-,18+/m1/s1

> <Ligand InChI Key>
LOTUYWFLSGFNAO-MSOLQXFVSA-N

> <BindingDB MonomerID>
50535499

> <BindingDB Ligand Name>
CHEMBL4437963

> <Target Name>
Peptide deformylase

> <Target Source Organism According to Curator or DataSource>
Staphylococcus aureus

> <Ki (nM)>
nan

> <IC50 (nM)>
6

> <Kd (nM)>
nan

> <EC50 (nM)>
nan

> <kon (M-1-s-1)>
nan

> <koff (s-1)>
nan

> <pH>
nan

> <Temp C>
nan

> <Curation/DataSource>
ChEMBL

> <Article DOI>
10.1016/j.bmcl.2019.05.028

> <BindingDB Entry DOI>
10.7270/Q2FF3WV7

> <PMID>
31160176

> <PubChem AID>
<NA>

> <Patent Number>
nan

> <Authors>
Spletstoser, JT; Dreabit, J; Knox, AN; Benowitz, A; Campobasso, N; Ward, P; Cui, G; Lewandowski, T; McCloskey, L; Aubart, KM

> <Date of publication>
8/15/2019

> <Date in BindingDB>
2/28/2021

> <Institution>
GlaxoSmithKline

> <Link to Ligand in BindingDB>
http://www.bindingdb.org/bind/chemsearch/marvin/MolStructure.jsp?monomerid=50535499

> <Link to Ligand-Target Pair in BindingDB>
http://www.bindingdb.org/jsp/dbsearch/PrimarySearch_ki.jsp?energyterm=kJ/mole&tag=r21&monomerid=50535499&enzyme=Peptide+deformylase&column=ki&startPg=0&Increment=50&submit=Search

> <Ligand HET ID in PDB>
<NA>

> <PDB ID(s) for Ligand-Target Complex>
<NA>

> <PubChem CID of Ligand>
155512893

> <PubChem SID of Ligand>
440744081

> <ChEBI ID of Ligand>
nan

> <ChEMBL ID of Ligand>
<NA>

> <DrugBank ID of Ligand>
<NA>

> <IUPHAR_GRAC ID of Ligand>
nan

> <KEGG ID of Ligand>
<NA>

> <ZINC ID of Ligand>
<NA>

> <Number of Protein Chains in Target (bigger than 1 implies a multichain complex)>
1

> <BindingDB Target Chain Sequence>
MLTMKDIIRD GHPTLRQKAA ELELPLTKEE KETLIAMREF LVNSQDEEIA
KRYGLRSGVG LAAPQINISK RMIAVLIPDD GSGKSYDYML VNPKIVSHSV
QEAYLPTGEG CLSVDDNVAG LVHRHNRITI KAKDIEGNDI QLRLKGYPAI
VFQHEIDHLN GVMFYDHIDK NHPLQPHTDA VEV

> <PDB ID(s) of Target Chain>
1LM4,1LMH,1LQW,2AI9,6JFG,6JFO,6JFQ,6JFR,6JFS

> <UniProt (SwissProt) Recommended Name of Target Chain>
Peptide deformylase

> <UniProt (SwissProt) Entry Name of Target Chain>
DEF_STAAM

> <UniProt (SwissProt) Primary ID of Target Chain>
P68825

> <UniProt (SwissProt) Secondary ID(s) of Target Chain>
Q9F4L4

> <UniProt (SwissProt) Alternative ID(s) of Target Chain>
nan

> <UniProt (TrEMBL) Submitted Name of Target Chain>
<NA>

> <UniProt (TrEMBL) Entry Name of Target Chain>
<NA>

> <UniProt (TrEMBL) Primary ID of Target Chain>
<NA>

> <UniProt (TrEMBL) Secondary ID(s) of Target Chain>
nan

> <UniProt (TrEMBL) Alternative ID(s) of Target Chain>
nan

> <pIC50>
-0.7782

> <Num_H_Donors_Lipinski>
2

> <Num_H_Acceptors_Lipinski>
8

> <Molecular_Weight>
394.50835

> <ALogP>
1.276

> <Num_RotatableBonds>
6

> <Molecular_PolarSurfaceArea>
93.19

> <Num_H_Acceptors>
5

> <Num_H_Donors>
2

> <Num_Rings>
3

> <Num_AromaticRings>
0

> <Molecular_FractionalPolarSurfaceArea>
0.241

> <Activity_Bin>
7

> <PLSTempModel>
-1.28431224184582

> <PLSTempModel_Residuals>
0.506112241845817

$$$$
Untitled_456
  SciTegic11182514132D

 21 23  0  0  0  0            999 V2000
   -1.7708   -0.6125    0.0000 N   0  0
   -1.0500   -0.1917    0.0000 C   0  0
   -1.0583    0.6333    0.0000 C   0  0
   -1.7708    1.0458    0.0000 S   0  0
   -2.4833   -0.2000    0.0000 C   0  0
   -2.4833    0.6250    0.0000 C   0  0
   -0.3458    1.0458    0.0000 C   0  0
    0.3750    0.6375    0.0000 C   0  0
   -1.7708   -1.4375    0.0000 C   0  0
   -0.3333   -0.6042    0.0000 O   0  0
    0.3792   -0.1875    0.0000 O   0  0
    1.0875    1.0500    0.0000 N   0  0
    1.8042    0.6458    0.0000 O   0  0
   -1.0625   -1.8542    0.0000 C   0  0
   -3.2000   -0.6167    0.0000 C   0  0
   -3.2000    1.0375    0.0000 C   0  0
   -0.0583   -2.4417    0.0000 C   0  0
   -0.8583   -2.6500    0.0000 C   0  0
   -0.2625   -1.6417    0.0000 C   0  0
   -3.9125   -0.2042    0.0000 C   0  0
   -3.9125    0.6250    0.0000 C   0  0
  2  1  1  0
  3  2  1  0
  4  6  1  0
  5  1  1  0
  6  5  2  0
  7  3  1  0
  8  7  1  0
  9  1  1  0
 10  2  2  0
 11  8  2  0
 12  8  1  0
 13 12  1  0
 14  9  1  0
 15  5  1  0
 16  6  1  0
 17 19  1  0
 18 14  1  0
 19 14  1  0
 20 15  2  0
 21 20  1  0
 17 18  1  0
  4  3  1  0
 21 16  2  0
M  END
> <Name>
Untitled_456

> <OBJECTID>
9223372354685632523

> <From>
www.bindingDB.org

> <BindingDB Reactant_set_id>
50259721

> <Ligand InChI>
InChI=1S/C15H18N2O3S/c18-14(16-20)8-13-15(19)17(9-10-4-3-5-10)11-6-1-2-7-12(11)21-13/h1-2,6-7,10,13,20H,3-5,8-9H2,(H,16,18)

> <Ligand InChI Key>
VJSPHGLZGYXVOT-UHFFFAOYSA-N

> <BindingDB MonomerID>
50141365

> <BindingDB Ligand Name>
2-(4-Cyclobutylmethyl-3-oxo-3,4-dihydro-2H-benzo[1,4]thiazin-2-yl)-N-hydroxy-acetamide::CHEMBL289736

> <Target Name>
Peptide deformylase

> <Target Source Organism According to Curator or DataSource>
Staphylococcus aureus (strain Mu50 / ATCC 700699)

> <Ki (nM)>
nan

> <IC50 (nM)>
41

> <Kd (nM)>
nan

> <EC50 (nM)>
nan

> <kon (M-1-s-1)>
nan

> <koff (s-1)>
nan

> <pH>
nan

> <Temp C>
nan

> <Curation/DataSource>
ChEMBL

> <Article DOI>
10.1016/j.bmcl.2004.01.014

> <BindingDB Entry DOI>
10.7270/Q2MS3S6G

> <PMID>
15006385

> <PubChem AID>
<NA>

> <Patent Number>
nan

> <Authors>
Molteni, V; He, X; Nabakka, J; Yang, K; Kreusch, A; Gordon, P; Bursulaya, B; Warner, I; Shin, T; Biorac, T; Ryder, NS; Goldberg, R; Doughty, J; He, Y

> <Date of publication>
3/9/2004

> <Date in BindingDB>
11/10/2009

> <Institution>
Genomics Institute of the Novartis Research Foundation

> <Link to Ligand in BindingDB>
http://www.bindingdb.org/bind/chemsearch/marvin/MolStructure.jsp?monomerid=50141365

> <Link to Ligand-Target Pair in BindingDB>
http://www.bindingdb.org/jsp/dbsearch/PrimarySearch_ki.jsp?energyterm=kJ/mole&tag=r21&monomerid=50141365&enzyme=Peptide+deformylase&column=ki&startPg=0&Increment=50&submit=Search

> <Ligand HET ID in PDB>
<NA>

> <PDB ID(s) for Ligand-Target Complex>
<NA>

> <PubChem CID of Ligand>
44283334

> <PubChem SID of Ligand>
104030824

> <ChEBI ID of Ligand>
nan

> <ChEMBL ID of Ligand>
CHEMBL289736

> <DrugBank ID of Ligand>
<NA>

> <IUPHAR_GRAC ID of Ligand>
nan

> <KEGG ID of Ligand>
<NA>

> <ZINC ID of Ligand>
ZINC29307657

> <Number of Protein Chains in Target (bigger than 1 implies a multichain complex)>
1

> <BindingDB Target Chain Sequence>
MLTMKDIIRDGHPTLRQKAAELELPLTKEEKETLIAMREFLVNSQDEEIAKRYGLRSGVGLAAPQINISKRMIAVLIPDDGSGKSYDYMLVNPKIVSHSVQEAYLPTGEGCLSVDDNVAGLVHRHNRITIKAKDIEGNDIQLRLKGYPAIVFQHEIDHLNGVMFYDHIDKNHPLQPHTDAVEV

> <PDB ID(s) of Target Chain>
1LM4,1LMH,1LQW,2AI9,6JFG,6JFO,6JFQ,6JFR,6JFS

> <UniProt (SwissProt) Recommended Name of Target Chain>
Peptide deformylase

> <UniProt (SwissProt) Entry Name of Target Chain>
DEF_STAAU

> <UniProt (SwissProt) Primary ID of Target Chain>
P68826

> <UniProt (SwissProt) Secondary ID(s) of Target Chain>
Q9F4L4

> <UniProt (SwissProt) Alternative ID(s) of Target Chain>
nan

> <UniProt (TrEMBL) Submitted Name of Target Chain>
<NA>

> <UniProt (TrEMBL) Entry Name of Target Chain>
<NA>

> <UniProt (TrEMBL) Primary ID of Target Chain>
<NA>

> <UniProt (TrEMBL) Secondary ID(s) of Target Chain>
nan

> <UniProt (TrEMBL) Alternative ID(s) of Target Chain>
nan

> <pIC50>
-1.6128

> <Num_H_Donors_Lipinski>
2

> <Num_H_Acceptors_Lipinski>
5

> <Molecular_Weight>
306.38002

> <ALogP>
1.91

> <Num_RotatableBonds>
4

> <Molecular_PolarSurfaceArea>
94.94

> <Num_H_Acceptors>
4

> <Num_H_Donors>
2

> <Num_Rings>
3

> <Num_AromaticRings>
1

> <Molecular_FractionalPolarSurfaceArea>
0.341

> <Activity_Bin>
5

> <PLSTempModel>
-2.02043211604564

> <PLSTempModel_Residuals>
0.407632116045643

$$$$
Untitled_564
  SciTegic11182514132D

 24 26  0  0  0  0            999 V2000
   -0.7958   -0.3542    0.0000 N   0  0
   -0.0833    0.0583    0.0000 C   0  0
   -0.0833    0.8875    0.0000 C   0  0
   -0.8000    1.3000    0.0000 S   0  0
   -0.8000   -1.1792    0.0000 C   0  0
   -1.5083    0.0583    0.0000 C   0  0
   -0.0958   -1.6000    0.0000 C   0  0
   -1.5125    0.8833    0.0000 C   0  0
    0.6292    1.3000    0.0000 C   0  0
   -0.1000   -2.4250    0.0000 N   0  0
    1.3417    0.8958    0.0000 C   0  0
    0.6375   -0.3542    0.0000 O   0  0
    0.6250   -1.1917    0.0000 O   0  0
    1.3500    0.0708    0.0000 O   0  0
    2.0542    1.3083    0.0000 N   0  0
    2.7750    0.8958    0.0000 O   0  0
   -0.7708   -2.9042    0.0000 C   0  0
    0.5667   -2.9167    0.0000 C   0  0
   -2.2333   -0.3625    0.0000 C   0  0
   -2.2333    1.2958    0.0000 C   0  0
    0.3042   -3.7000    0.0000 C   0  0
   -0.5208   -3.6917    0.0000 C   0  0
   -2.9458    0.0500    0.0000 C   0  0
   -2.9458    0.8750    0.0000 C   0  0
  2  1  1  0
  3  2  1  0
  4  8  1  0
  5  1  1  0
  6  1  1  0
  7  5  1  0
  8  6  2  0
  9  3  1  0
 10  7  1  0
 11  9  1  0
 12  2  2  0
 13  7  2  0
 14 11  2  0
 15 11  1  0
 16 15  1  0
 17 10  1  0
 18 10  1  0
 19  6  1  0
 20  8  1  0
 21 18  1  0
 22 17  1  0
 23 19  2  0
 24 23  1  0
  4  3  1  0
 24 20  2  0
 21 22  1  0
M  END
> <Name>
Untitled_564

> <OBJECTID>
9223372436290011147

> <From>
www.bindingDB.org

> <BindingDB Reactant_set_id>
50259714

> <Ligand InChI>
InChI=1S/C16H19N3O4S/c20-14(17-23)9-13-16(22)19(10-15(21)18-7-3-4-8-18)11-5-1-2-6-12(11)24-13/h1-2,5-6,13,23H,3-4,7-10H2,(H,17,20)

> <Ligand InChI Key>
UWTTTWMNXVJWFN-UHFFFAOYSA-N

> <BindingDB MonomerID>
50141358

> <BindingDB Ligand Name>
CHEMBL285024::N-Hydroxy-2-[3-oxo-4-(2-oxo-2-pyrrolidin-1-yl-ethyl)-3,4-dihydro-2H-benzo[1,4]thiazin-2-yl]-acetamide

> <Target Name>
Peptide deformylase

> <Target Source Organism According to Curator or DataSource>
Staphylococcus aureus (strain Mu50 / ATCC 700699)

> <Ki (nM)>
nan

> <IC50 (nM)>
397

> <Kd (nM)>
nan

> <EC50 (nM)>
nan

> <kon (M-1-s-1)>
nan

> <koff (s-1)>
nan

> <pH>
nan

> <Temp C>
nan

> <Curation/DataSource>
ChEMBL

> <Article DOI>
10.1016/j.bmcl.2004.01.014

> <BindingDB Entry DOI>
10.7270/Q2MS3S6G

> <PMID>
15006385

> <PubChem AID>
<NA>

> <Patent Number>
nan

> <Authors>
Molteni, V; He, X; Nabakka, J; Yang, K; Kreusch, A; Gordon, P; Bursulaya, B; Warner, I; Shin, T; Biorac, T; Ryder, NS; Goldberg, R; Doughty, J; He, Y

> <Date of publication>
3/9/2004

> <Date in BindingDB>
11/10/2009

> <Institution>
Genomics Institute of the Novartis Research Foundation

> <Link to Ligand in BindingDB>
http://www.bindingdb.org/bind/chemsearch/marvin/MolStructure.jsp?monomerid=50141358

> <Link to Ligand-Target Pair in BindingDB>
http://www.bindingdb.org/jsp/dbsearch/PrimarySearch_ki.jsp?energyterm=kJ/mole&tag=r21&monomerid=50141358&enzyme=Peptide+deformylase&column=ki&startPg=0&Increment=50&submit=Search

> <Ligand HET ID in PDB>
<NA>

> <PDB ID(s) for Ligand-Target Complex>
<NA>

> <PubChem CID of Ligand>
44283115

> <PubChem SID of Ligand>
104030817

> <ChEBI ID of Ligand>
nan

> <ChEMBL ID of Ligand>
CHEMBL285024

> <DrugBank ID of Ligand>
<NA>

> <IUPHAR_GRAC ID of Ligand>
nan

> <KEGG ID of Ligand>
<NA>

> <ZINC ID of Ligand>
ZINC29250342

> <Number of Protein Chains in Target (bigger than 1 implies a multichain complex)>
1

> <BindingDB Target Chain Sequence>
MLTMKDIIRDGHPTLRQKAAELELPLTKEEKETLIAMREFLVNSQDEEIAKRYGLRSGVGLAAPQINISKRMIAVLIPDDGSGKSYDYMLVNPKIVSHSVQEAYLPTGEGCLSVDDNVAGLVHRHNRITIKAKDIEGNDIQLRLKGYPAIVFQHEIDHLNGVMFYDHIDKNHPLQPHTDAVEV

> <PDB ID(s) of Target Chain>
1LM4,1LMH,1LQW,2AI9,6JFG,6JFO,6JFQ,6JFR,6JFS

> <UniProt (SwissProt) Recommended Name of Target Chain>
Peptide deformylase

> <UniProt (SwissProt) Entry Name of Target Chain>
DEF_STAAU

> <UniProt (SwissProt) Primary ID of Target Chain>
P68826

> <UniProt (SwissProt) Secondary ID(s) of Target Chain>
Q9F4L4

> <UniProt (SwissProt) Alternative ID(s) of Target Chain>
nan

> <UniProt (TrEMBL) Submitted Name of Target Chain>
<NA>

> <UniProt (TrEMBL) Entry Name of Target Chain>
<NA>

> <UniProt (TrEMBL) Primary ID of Target Chain>
<NA>

> <UniProt (TrEMBL) Secondary ID(s) of Target Chain>
nan

> <UniProt (TrEMBL) Alternative ID(s) of Target Chain>
nan

> <pIC50>
-2.5988

> <Num_H_Donors_Lipinski>
2

> <Num_H_Acceptors_Lipinski>
7

> <Molecular_Weight>
349.40475

> <ALogP>
0.361

> <Num_RotatableBonds>
4

> <Molecular_PolarSurfaceArea>
115.25

> <Num_H_Acceptors>
5

> <Num_H_Donors>
2

> <Num_Rings>
3

> <Num_AromaticRings>
1

> <Molecular_FractionalPolarSurfaceArea>
0.357

> <Activity_Bin>
3

> <PLSTempModel>
-2.06749257849538

> <PLSTempModel_Residuals>
-0.531307421504617

$$$$
Untitled_46
  SciTegic11182514132D

 28 29  0  0  0  0            999 V2000
   17.6333   -0.6917    0.0000 C   0  0  2  0  0  0
   18.3478   -0.2792    0.0000 C   0  0
   16.9189   -0.2792    0.0000 C   0  0
   16.2044   -0.6917    0.0000 N   0  0
   16.9189    0.5458    0.0000 O   0  0
   19.0623   -0.6917    0.0000 N   0  0
   19.7767   -0.2792    0.0000 C   0  0
   19.0623   -1.5167    0.0000 O   0  0
   19.7767    0.5458    0.0000 O   0  0
   17.6340   -1.5166    0.0000 C   0  0
   16.9591   -1.9915    0.0000 C   0  0
   16.1764   -1.7242    0.0000 C   0  0
   15.6815   -2.3843    0.0000 C   0  0
   16.1564   -3.0590    0.0000 C   0  0
   16.9447   -2.8157    0.0000 C   0  0
   15.4468   -0.3544    0.0000 C   0  0  1  0  0  0
   14.8948   -0.9675    0.0000 C   0  0
   15.3073   -1.6820    0.0000 C   0  0
   16.1142   -1.5103    0.0000 C   0  0
   15.2753    0.4526    0.0000 C   0  0
   15.8884    1.0046    0.0000 O   0  0
   14.4907    0.7076    0.0000 N   0  0
   14.3191    1.5145    0.0000 C   0  0
   14.9322    2.0666    0.0000 O   0  0
   13.5345    1.7695    0.0000 N   0  0
   13.3630    2.5764    0.0000 C   0  0
   12.5784    2.8314    0.0000 C   0  0
   13.9761    3.1285    0.0000 C   0  0
 13 14  1  0
 14 15  1  0
 15 11  1  0
 16  4  1  0
  6  8  1  0
  7  9  2  0
  3  5  2  0
 16 17  1  0
 17 18  1  0
 18 19  1  0
 19  4  1  0
  1 10  1  1
 16 20  1  1
  1  3  1  0
 20 21  2  0
 10 11  1  0
 20 22  1  0
 11 12  1  0
 22 23  1  0
  2  6  1  0
 23 24  2  0
  1  2  1  0
 23 25  1  0
  6  7  1  0
 25 26  1  0
  3  4  1  0
 26 27  1  0
 12 13  1  0
 26 28  1  0
M  END
> <Name>
Untitled_46

> <OBJECTID>
9223372079807725579

> <From>
www.bindingDB.org

> <BindingDB Reactant_set_id>
50935653

> <Ligand InChI>
InChI=1S/C19H32N4O5/c1-13(2)20-19(27)21-17(25)16-8-5-9-23(16)18(26)15(11-22(28)12-24)10-14-6-3-4-7-14/h12-16,28H,3-11H2,1-2H3,(H2,20,21,25,27)/t15-,16+/m1/s1

> <Ligand InChI Key>
WOLNWDIQVHDQBR-CVEARBPZSA-N

> <BindingDB MonomerID>
50383993

> <BindingDB Ligand Name>
CHEMBL2032131

> <Target Name>
Peptide deformylase

> <Target Source Organism According to Curator or DataSource>
Streptococcus pneumoniae serotype 4 (strain ATCC BAA-334 / TIGR4)

> <Ki (nM)>
nan

> <IC50 (nM)>
0.31

> <Kd (nM)>
nan

> <EC50 (nM)>
nan

> <kon (M-1-s-1)>
nan

> <koff (s-1)>
nan

> <pH>
nan

> <Temp C>
nan

> <Curation/DataSource>
ChEMBL

> <Article DOI>
10.1016/j.bmcl.2012.04.086

> <BindingDB Entry DOI>
10.7270/Q2K64K3V

> <PMID>
22579486

> <PubChem AID>
<NA>

> <Patent Number>
nan

> <Authors>
Axten, JM; Medina, JR; Blackledge, CW; Duquenne, C; Grant, SW; Bobko, MA; Peng, T; Miller, WH; Pinckney, T; Gallagher, TF; Kulkarni, S; Lewandowski, T; Van Aller, GS; Zonis, R; Ward, P; Campobasso, N

> <Date of publication>
5/29/2012

> <Date in BindingDB>
2/7/2013

> <Institution>
GlaxoSmithKline

> <Link to Ligand in BindingDB>
http://www.bindingdb.org/bind/chemsearch/marvin/MolStructure.jsp?monomerid=50383993

> <Link to Ligand-Target Pair in BindingDB>
http://www.bindingdb.org/jsp/dbsearch/PrimarySearch_ki.jsp?energyterm=kJ/mole&tag=r21&monomerid=50383993&enzyme=Peptide+deformylase&column=ki&startPg=0&Increment=50&submit=Search

> <Ligand HET ID in PDB>
<NA>

> <PDB ID(s) for Ligand-Target Complex>
<NA>

> <PubChem CID of Ligand>
57878122

> <PubChem SID of Ligand>
160863076

> <ChEBI ID of Ligand>
nan

> <ChEMBL ID of Ligand>
CHEMBL2032131

> <DrugBank ID of Ligand>
<NA>

> <IUPHAR_GRAC ID of Ligand>
nan

> <KEGG ID of Ligand>
<NA>

> <ZINC ID of Ligand>
ZINC84671297

> <Number of Protein Chains in Target (bigger than 1 implies a multichain complex)>
1

> <BindingDB Target Chain Sequence>
MSAIERITKAAHLIDMNDIIREGNPTLRAIAEEVTFPLSDQEIILGEKMMQFLKHSQDPVMAEKMGLRGGVGLAAPQLDISKRIIAVLVPNIVEEGETPQEAYDLEAIMYNPKIVSHSVQDAALGEGEGCLSVDRNVPGYVVRHARVTVDYFDKDGEKHRIKLKGYNSIVVQHEIDHINGIMFYDRINEKDPFAVKDGLL
ILE

> <PDB ID(s) of Target Chain>
<NA>

> <UniProt (SwissProt) Recommended Name of Target Chain>
Peptide deformylase

> <UniProt (SwissProt) Entry Name of Target Chain>
DEF_STRPN

> <UniProt (SwissProt) Primary ID of Target Chain>
Q9F2F0

> <UniProt (SwissProt) Secondary ID(s) of Target Chain>
<NA>

> <UniProt (SwissProt) Alternative ID(s) of Target Chain>
nan

> <UniProt (TrEMBL) Submitted Name of Target Chain>
<NA>

> <UniProt (TrEMBL) Entry Name of Target Chain>
<NA>

> <UniProt (TrEMBL) Primary ID of Target Chain>
<NA>

> <UniProt (TrEMBL) Secondary ID(s) of Target Chain>
nan

> <UniProt (TrEMBL) Alternative ID(s) of Target Chain>
nan

> <pIC50>
0.5086

> <Num_H_Donors_Lipinski>
3

> <Num_H_Acceptors_Lipinski>
9

> <Molecular_Weight>
396.48118

> <ALogP>
1.151

> <Num_RotatableBonds>
7

> <Molecular_PolarSurfaceArea>
119.05

> <Num_H_Acceptors>
5

> <Num_H_Donors>
3

> <Num_Rings>
2

> <Num_AromaticRings>
0

> <Molecular_FractionalPolarSurfaceArea>
0.298

> <Activity_Bin>
9

> <PLSTempModel>
0.49570429545771

> <PLSTempModel_Residuals>
1.28957045422906e-002

$$$$
Untitled_273
  SciTegic11182514132D

 29 30  0  0  0  0            999 V2000
   26.4792  -15.9125    0.0000 C   0  0  2  0  0  0
   27.1936  -15.5000    0.0000 C   0  0
   25.7647  -15.5000    0.0000 C   0  0
   25.0502  -15.9125    0.0000 N   0  0
   25.7647  -14.6750    0.0000 O   0  0
   27.9081  -15.9125    0.0000 N   0  0
   28.6226  -15.5000    0.0000 C   0  0
   27.9081  -16.7375    0.0000 O   0  0
   28.6226  -14.6750    0.0000 O   0  0
   26.4798  -16.7374    0.0000 C   0  0
   25.8049  -17.2124    0.0000 C   0  0
   25.0222  -16.9450    0.0000 C   0  0
   24.5273  -17.6051    0.0000 C   0  0
   25.0022  -18.2798    0.0000 C   0  0
   25.7905  -18.0365    0.0000 C   0  0
   24.2926  -15.5752    0.0000 C   0  0  1  0  0  0
   23.7406  -16.1883    0.0000 C   0  0
   24.1531  -16.9028    0.0000 C   0  0
   24.9600  -16.7312    0.0000 C   0  0
   24.1211  -14.7682    0.0000 C   0  0
   24.7342  -14.2162    0.0000 O   0  0
   23.3365  -14.5133    0.0000 N   0  0
   23.1650  -13.7063    0.0000 C   0  0
   23.7781  -13.1543    0.0000 O   0  0
   22.3803  -13.4514    0.0000 O   0  0
   22.2088  -12.6444    0.0000 C   0  0
   22.8219  -12.0924    0.0000 C   0  0
   21.4242  -12.3895    0.0000 C   0  0
   21.9917  -11.8417    0.0000 C   0  0
 14 15  1  0
 15 11  1  0
 16  4  1  0
  6  8  1  0
  7  9  2  0
  3  5  2  0
 16 17  1  0
 17 18  1  0
 18 19  1  0
 19  4  1  0
  1 10  1  1
 16 20  1  1
  1  3  1  0
 20 21  2  0
 10 11  1  0
 20 22  1  0
 11 12  1  0
 22 23  1  0
  2  6  1  0
 23 24  2  0
  1  2  1  0
 23 25  1  0
  6  7  1  0
 25 26  1  0
  3  4  1  0
 26 27  1  0
 12 13  1  0
 26 28  1  0
 13 14  1  0
 26 29  1  0
M  END
> <Name>
Untitled_273

> <OBJECTID>
9223372273081253899

> <From>
www.bindingDB.org

> <BindingDB Reactant_set_id>
50935682

> <Ligand InChI>
InChI=1S/C20H33N3O6/c1-20(2,3)29-19(27)21-17(25)16-9-6-10-23(16)18(26)15(12-22(28)13-24)11-14-7-4-5-8-14/h13-16,28H,4-12H2,1-3H3,(H,21,25,27)/t15-,16+/m1/s1

> <Ligand InChI Key>
CZSWHORSWAHBIA-CVEARBPZSA-N

> <BindingDB MonomerID>
50383985

> <BindingDB Ligand Name>
CHEMBL2032123

> <Target Name>
Peptide deformylase

> <Target Source Organism According to Curator or DataSource>
Staphylococcus aureus

> <Ki (nM)>
nan

> <IC50 (nM)>
3.4

> <Kd (nM)>
nan

> <EC50 (nM)>
nan

> <kon (M-1-s-1)>
nan

> <koff (s-1)>
nan

> <pH>
nan

> <Temp C>
nan

> <Curation/DataSource>
ChEMBL

> <Article DOI>
10.1016/j.bmcl.2012.04.086

> <BindingDB Entry DOI>
10.7270/Q2K64K3V

> <PMID>
22579486

> <PubChem AID>
<NA>

> <Patent Number>
nan

> <Authors>
Axten, JM; Medina, JR; Blackledge, CW; Duquenne, C; Grant, SW; Bobko, MA; Peng, T; Miller, WH; Pinckney, T; Gallagher, TF; Kulkarni, S; Lewandowski, T; Van Aller, GS; Zonis, R; Ward, P; Campobasso, N

> <Date of publication>
5/29/2012

> <Date in BindingDB>
2/7/2013

> <Institution>
GlaxoSmithKline

> <Link to Ligand in BindingDB>
http://www.bindingdb.org/bind/chemsearch/marvin/MolStructure.jsp?monomerid=50383985

> <Link to Ligand-Target Pair in BindingDB>
http://www.bindingdb.org/jsp/dbsearch/PrimarySearch_ki.jsp?energyterm=kJ/mole&tag=r21&monomerid=50383985&enzyme=Peptide+deformylase&column=ki&startPg=0&Increment=50&submit=Search

> <Ligand HET ID in PDB>
<NA>

> <PDB ID(s) for Ligand-Target Complex>
<NA>

> <PubChem CID of Ligand>
16036282

> <PubChem SID of Ligand>
160863068

> <ChEBI ID of Ligand>
nan

> <ChEMBL ID of Ligand>
CHEMBL2032123

> <DrugBank ID of Ligand>
<NA>

> <IUPHAR_GRAC ID of Ligand>
nan

> <KEGG ID of Ligand>
<NA>

> <ZINC ID of Ligand>
ZINC34874249

> <Number of Protein Chains in Target (bigger than 1 implies a multichain complex)>
1

> <BindingDB Target Chain Sequence>
MLTMKDIIRD GHPTLRQKAA ELELPLTKEE KETLIAMREF LVNSQDEEIA
KRYGLRSGVG LAAPQINISK RMIAVLIPDD GSGKSYDYML VNPKIVSHSV
QEAYLPTGEG CLSVDDNVAG LVHRHNRITI KAKDIEGNDI QLRLKGYPAI
VFQHEIDHLN GVMFYDHIDK NHPLQPHTDA VEV

> <PDB ID(s) of Target Chain>
1LM4,1LMH,1LQW,2AI9,6JFG,6JFO,6JFQ,6JFR,6JFS

> <UniProt (SwissProt) Recommended Name of Target Chain>
Peptide deformylase

> <UniProt (SwissProt) Entry Name of Target Chain>
DEF_STAAM

> <UniProt (SwissProt) Primary ID of Target Chain>
P68825

> <UniProt (SwissProt) Secondary ID(s) of Target Chain>
Q9F4L4

> <UniProt (SwissProt) Alternative ID(s) of Target Chain>
nan

> <UniProt (TrEMBL) Submitted Name of Target Chain>
<NA>

> <UniProt (TrEMBL) Entry Name of Target Chain>
<NA>

> <UniProt (TrEMBL) Primary ID of Target Chain>
<NA>

> <UniProt (TrEMBL) Secondary ID(s) of Target Chain>
nan

> <UniProt (TrEMBL) Alternative ID(s) of Target Chain>
nan

> <pIC50>
-0.5315

> <Num_H_Donors_Lipinski>
2

> <Num_H_Acceptors_Lipinski>
9

> <Molecular_Weight>
411.49252

> <ALogP>
2.003

> <Num_RotatableBonds>
8

> <Molecular_PolarSurfaceArea>
116.25

> <Num_H_Acceptors>
6

> <Num_H_Donors>
2

> <Num_Rings>
2

> <Num_AromaticRings>
0

> <Molecular_FractionalPolarSurfaceArea>
0.277

> <Activity_Bin>
7

> <PLSTempModel>
-8.59264173895315e-002

> <PLSTempModel_Residuals>
-0.445573582610468

$$$$
Untitled_489
  SciTegic11182514132D

 25 26  0  0  0  0            999 V2000
    8.1682   -5.7636    0.0000 C   0  0
    3.8799   -4.9426    0.0000 C   0  0
    3.8882   -5.7678    0.0000 C   0  0
    4.6051   -6.1762    0.0000 N   0  0
    3.1756   -6.1804    0.0000 C   0  0
    7.4556   -6.1762    0.0000 C   0  0
    3.1673   -4.5301    0.0000 O   0  0
    3.1756   -7.0138    0.0000 C   0  0
    6.7430   -5.7678    0.0000 C   0  0
    4.5926   -4.5259    0.0000 N   0  0
    8.3058   -4.9134    0.0000 F   0  0
    8.8184   -5.3927    0.0000 F   0  0
    8.9767   -6.0678    0.0000 F   0  0
    5.3177   -5.7636    0.0000 C   0  0
    6.0303   -6.1762    0.0000 C   0  0
    2.4547   -7.4264    0.0000 C   0  0
    5.3135   -4.9384    0.0000 O   0  0
    2.4547   -5.7678    0.0000 C   0  0
    2.4547   -8.2516    0.0000 O   0  0
    7.4556   -7.0055    0.0000 C   0  0
    1.7420   -6.1887    0.0000 C   0  0
    6.7388   -7.4139    0.0000 C   0  0
    6.0303   -6.9930    0.0000 C   0  0
    1.7420   -7.0138    0.0000 C   0  0
    1.7420   -8.6641    0.0000 C   0  0
  2  3  1  0
  3  4  1  0
  4 14  1  0
  5  3  1  0
  6  1  1  0
  7  2  2  0
  8  5  2  0
  9  6  2  0
 10  2  1  0
 11  1  1  0
 12  1  1  0
 13  1  1  0
 14 15  1  0
 15  9  1  0
 16  8  1  0
 17 10  1  0
 18  5  1  0
 19 16  1  0
 20  6  1  0
 21 18  2  0
 22 20  2  0
 23 22  1  0
 24 21  1  0
 25 19  1  0
 23 15  2  0
 16 24  2  0
M  END
> <Name>
Untitled_489

> <OBJECTID>
9223372380455436299

> <From>
www.bindingDB.org

> <BindingDB Reactant_set_id>
50179858

> <Ligand InChI>
InChI=1S/C17H17F3N2O3/c1-25-14-7-3-5-12(9-14)15(16(23)22-24)21-10-11-4-2-6-13(8-11)17(18,19)20/h2-9,15,21,24H,10H2,1H3,(H,22,23)

> <Ligand InChI Key>
IYKKEQAOCAUDMF-UHFFFAOYSA-N

> <BindingDB MonomerID>
50099846

> <BindingDB Ligand Name>
CHEMBL29911::N-Hydroxy-2-(3-methoxy-phenyl)-2-(3-trifluoromethyl-benzylamino)-acetamide

> <Target Name>
Peptide deformylase

> <Target Source Organism According to Curator or DataSource>
Staphylococcus aureus (strain Mu50 / ATCC 700699)

> <Ki (nM)>
nan

> <IC50 (nM)>
59

> <Kd (nM)>
nan

> <EC50 (nM)>
nan

> <kon (M-1-s-1)>
nan

> <koff (s-1)>
nan

> <pH>
nan

> <Temp C>
nan

> <Curation/DataSource>
ChEMBL

> <Article DOI>
10.1016/s0960-894x(01)00242-6

> <BindingDB Entry DOI>
10.7270/Q2D50M7N

> <PMID>
11378353

> <PubChem AID>
<NA>

> <Patent Number>
nan

> <Authors>
Thorarensen, A; Deibel, MR; Rohrer, DC; Vosters, AF; Yem, AW; Marshall, VD; Lynn, JC; Bohanon, MJ; Tomich, PK; Zurenko, GE; Sweeney, MT; Jensen, RM; Nielsen, JW; Seest, EP; Dolak, LA

> <Date of publication>
5/29/2001

> <Date in BindingDB>
11/10/2009

> <Institution>
Pharmacia

> <Link to Ligand in BindingDB>
http://www.bindingdb.org/bind/chemsearch/marvin/MolStructure.jsp?monomerid=50099846

> <Link to Ligand-Target Pair in BindingDB>
http://www.bindingdb.org/jsp/dbsearch/PrimarySearch_ki.jsp?energyterm=kJ/mole&tag=r21&monomerid=50099846&enzyme=Peptide+deformylase&column=ki&startPg=0&Increment=50&submit=Search

> <Ligand HET ID in PDB>
<NA>

> <PDB ID(s) for Ligand-Target Complex>
<NA>

> <PubChem CID of Ligand>
44277308

> <PubChem SID of Ligand>
103996671

> <ChEBI ID of Ligand>
nan

> <ChEMBL ID of Ligand>
CHEMBL29911

> <DrugBank ID of Ligand>
<NA>

> <IUPHAR_GRAC ID of Ligand>
nan

> <KEGG ID of Ligand>
<NA>

> <ZINC ID of Ligand>
ZINC28767889

> <Number of Protein Chains in Target (bigger than 1 implies a multichain complex)>
1

> <BindingDB Target Chain Sequence>
MLTMKDIIRDGHPTLRQKAAELELPLTKEEKETLIAMREFLVNSQDEEIAKRYGLRSGVGLAAPQINISKRMIAVLIPDDGSGKSYDYMLVNPKIVSHSVQEAYLPTGEGCLSVDDNVAGLVHRHNRITIKAKDIEGNDIQLRLKGYPAIVFQHEIDHLNGVMFYDHIDKNHPLQPHTDAVEV

> <PDB ID(s) of Target Chain>
1LM4,1LMH,1LQW,2AI9,6JFG,6JFO,6JFQ,6JFR,6JFS

> <UniProt (SwissProt) Recommended Name of Target Chain>
Peptide deformylase

> <UniProt (SwissProt) Entry Name of Target Chain>
DEF_STAAU

> <UniProt (SwissProt) Primary ID of Target Chain>
P68826

> <UniProt (SwissProt) Secondary ID(s) of Target Chain>
Q9F4L4

> <UniProt (SwissProt) Alternative ID(s) of Target Chain>
nan

> <UniProt (TrEMBL) Submitted Name of Target Chain>
<NA>

> <UniProt (TrEMBL) Entry Name of Target Chain>
<NA>

> <UniProt (TrEMBL) Primary ID of Target Chain>
<NA>

> <UniProt (TrEMBL) Secondary ID(s) of Target Chain>
nan

> <UniProt (TrEMBL) Alternative ID(s) of Target Chain>
nan

> <pIC50>
-1.7709

> <Num_H_Donors_Lipinski>
3

> <Num_H_Acceptors_Lipinski>
5

> <Molecular_Weight>
354.32368

> <ALogP>
2.879

> <Num_RotatableBonds>
7

> <Molecular_PolarSurfaceArea>
70.59

> <Num_H_Acceptors>
4

> <Num_H_Donors>
3

> <Num_Rings>
2

> <Num_AromaticRings>
2

> <Molecular_FractionalPolarSurfaceArea>
0.218

> <Activity_Bin>
4

> <PLSTempModel>
-1.99375112983231

> <PLSTempModel_Residuals>
0.222851129832307

$$$$
Untitled_36
  SciTegic11182514132D

 33 35  0  0  0  0            999 V2000
   26.1125   -8.1667    0.0000 C   0  0  2  0  0  0
   26.8270   -7.7542    0.0000 C   0  0
   25.3980   -7.7542    0.0000 C   0  0
   24.6836   -8.1667    0.0000 N   0  0
   25.3980   -6.9292    0.0000 O   0  0
   27.5414   -8.1667    0.0000 N   0  0
   28.2559   -7.7542    0.0000 C   0  0
   27.5414   -8.9917    0.0000 O   0  0
   28.2559   -6.9292    0.0000 O   0  0
   26.1132   -8.9916    0.0000 C   0  0
   25.4382   -9.4665    0.0000 C   0  0
   24.6555   -9.1992    0.0000 C   0  0
   24.1607   -9.8593    0.0000 C   0  0
   24.6356  -10.5340    0.0000 C   0  0
   25.4239  -10.2907    0.0000 C   0  0
   23.9260   -7.8294    0.0000 C   0  0  1  0  0  0
   23.3739   -8.4425    0.0000 C   0  0
   23.7865   -9.1570    0.0000 C   0  0
   24.5934   -8.9853    0.0000 C   0  0
   23.7544   -7.0224    0.0000 C   0  0
   24.3675   -6.4704    0.0000 O   0  0
   22.9698   -6.7674    0.0000 N   0  0
   22.7983   -5.9605    0.0000 C   0  0
   23.4114   -5.4084    0.0000 O   0  0
   22.0137   -5.7055    0.0000 N   0  0
   21.8422   -4.8986    0.0000 C   0  0
   22.4552   -4.3465    0.0000 C   0  0
   22.2837   -3.5396    0.0000 C   0  0
   22.8982   -2.9905    0.0000 C   0  0
   22.7272   -2.1842    0.0000 C   0  0
   21.9419   -1.9286    0.0000 C   0  0
   21.3274   -2.4855    0.0000 C   0  0
   21.5016   -3.2897    0.0000 C   0  0
  7  9  2  0
  3  5  2  0
 16 17  1  0
 17 18  1  0
 18 19  1  0
 19  4  1  0
  1 10  1  1
 16 20  1  1
  1  3  1  0
 20 21  2  0
 10 11  1  0
 20 22  1  0
 11 12  1  0
 22 23  1  0
  2  6  1  0
 23 24  2  0
  1  2  1  0
 23 25  1  0
  6  7  1  0
 25 26  1  0
  3  4  1  0
 26 27  1  0
 12 13  1  0
 27 28  1  0
 13 14  1  0
 28 29  2  0
 14 15  1  0
 29 30  1  0
 15 11  1  0
 30 31  2  0
 16  4  1  0
 31 32  1  0
  6  8  1  0
 32 33  2  0
 33 28  1  0
M  END
> <Name>
Untitled_36

> <OBJECTID>
9223372041153019915

> <From>
www.bindingDB.org

> <BindingDB Reactant_set_id>
50935659

> <Ligand InChI>
InChI=1S/C24H34N4O5/c29-17-27(33)16-20(15-19-9-4-5-10-19)23(31)28-14-6-11-21(28)22(30)26-24(32)25-13-12-18-7-2-1-3-8-18/h1-3,7-8,17,19-21,33H,4-6,9-16H2,(H2,25,26,30,32)/t20-,21+/m1/s1

> <Ligand InChI Key>
KLBNIMBVLSGXDC-RTWAWAEBSA-N

> <BindingDB MonomerID>
50383999

> <BindingDB Ligand Name>
CHEMBL2032137

> <Target Name>
Peptide deformylase

> <Target Source Organism According to Curator or DataSource>
Streptococcus pneumoniae serotype 4 (strain ATCC BAA-334 / TIGR4)

> <Ki (nM)>
nan

> <IC50 (nM)>
0.12

> <Kd (nM)>
nan

> <EC50 (nM)>
nan

> <kon (M-1-s-1)>
nan

> <koff (s-1)>
nan

> <pH>
nan

> <Temp C>
nan

> <Curation/DataSource>
ChEMBL

> <Article DOI>
10.1016/j.bmcl.2012.04.086

> <BindingDB Entry DOI>
10.7270/Q2K64K3V

> <PMID>
22579486

> <PubChem AID>
<NA>

> <Patent Number>
nan

> <Authors>
Axten, JM; Medina, JR; Blackledge, CW; Duquenne, C; Grant, SW; Bobko, MA; Peng, T; Miller, WH; Pinckney, T; Gallagher, TF; Kulkarni, S; Lewandowski, T; Van Aller, GS; Zonis, R; Ward, P; Campobasso, N

> <Date of publication>
5/29/2012

> <Date in BindingDB>
2/7/2013

> <Institution>
GlaxoSmithKline

> <Link to Ligand in BindingDB>
http://www.bindingdb.org/bind/chemsearch/marvin/MolStructure.jsp?monomerid=50383999

> <Link to Ligand-Target Pair in BindingDB>
http://www.bindingdb.org/jsp/dbsearch/PrimarySearch_ki.jsp?energyterm=kJ/mole&tag=r21&monomerid=50383999&enzyme=Peptide+deformylase&column=ki&startPg=0&Increment=50&submit=Search

> <Ligand HET ID in PDB>
<NA>

> <PDB ID(s) for Ligand-Target Complex>
<NA>

> <PubChem CID of Ligand>
57878141

> <PubChem SID of Ligand>
160863082

> <ChEBI ID of Ligand>
nan

> <ChEMBL ID of Ligand>
CHEMBL2032137

> <DrugBank ID of Ligand>
<NA>

> <IUPHAR_GRAC ID of Ligand>
nan

> <KEGG ID of Ligand>
<NA>

> <ZINC ID of Ligand>
ZINC84654165

> <Number of Protein Chains in Target (bigger than 1 implies a multichain complex)>
1

> <BindingDB Target Chain Sequence>
MSAIERITKAAHLIDMNDIIREGNPTLRAIAEEVTFPLSDQEIILGEKMMQFLKHSQDPVMAEKMGLRGGVGLAAPQLDISKRIIAVLVPNIVEEGETPQEAYDLEAIMYNPKIVSHSVQDAALGEGEGCLSVDRNVPGYVVRHARVTVDYFDKDGEKHRIKLKGYNSIVVQHEIDHINGIMFYDRINEKDPFAVKDGLL
ILE

> <PDB ID(s) of Target Chain>
<NA>

> <UniProt (SwissProt) Recommended Name of Target Chain>
Peptide deformylase

> <UniProt (SwissProt) Entry Name of Target Chain>
DEF_STRPN

> <UniProt (SwissProt) Primary ID of Target Chain>
Q9F2F0

> <UniProt (SwissProt) Secondary ID(s) of Target Chain>
<NA>

> <UniProt (SwissProt) Alternative ID(s) of Target Chain>
nan

> <UniProt (TrEMBL) Submitted Name of Target Chain>
<NA>

> <UniProt (TrEMBL) Entry Name of Target Chain>
<NA>

> <UniProt (TrEMBL) Primary ID of Target Chain>
<NA>

> <UniProt (TrEMBL) Secondary ID(s) of Target Chain>
nan

> <UniProt (TrEMBL) Alternative ID(s) of Target Chain>
nan

> <pIC50>
0.9208

> <Num_H_Donors_Lipinski>
3

> <Num_H_Acceptors_Lipinski>
9

> <Molecular_Weight>
458.55056

> <ALogP>
2.329

> <Num_RotatableBonds>
9

> <Molecular_PolarSurfaceArea>
119.05

> <Num_H_Acceptors>
5

> <Num_H_Donors>
3

> <Num_Rings>
3

> <Num_AromaticRings>
1

> <Molecular_FractionalPolarSurfaceArea>
0.265

> <Activity_Bin>
10

> <PLSTempModel>
0.287216127847796

> <PLSTempModel_Residuals>
0.633583872152204

$$$$
SB-543668
  SciTegic11182514132D

 21 22  0  0  0  0            999 V2000
   -4.1875    2.1375    0.0000 C   0  0
   -4.9020    1.7250    0.0000 C   0  0
   -4.9020    0.9000    0.0000 C   0  0
   -4.1875    0.4875    0.0000 C   0  0
   -3.4730    0.9000    0.0000 C   0  0
   -3.4730    1.7250    0.0000 C   0  0
   -2.7586    0.4875    0.0000 C   0  0
   -2.0441    0.9000    0.0000 C   0  0
   -1.3296    2.1375    0.0000 C   0  0
   -2.0441    1.7250    0.0000 C   0  0
   -1.3296    0.4875    0.0000 C   0  0
   -0.6152    0.9000    0.0000 C   0  0
   -0.6152    1.7250    0.0000 C   0  0
   -2.7586   -0.3375    0.0000 O   0  0
    0.0993    0.4875    0.0000 O   0  0
    0.8138    0.9000    0.0000 C   0  0
    1.5283    0.4875    0.0000 C   0  0
    2.2427    0.9000    0.0000 N   0  0
    2.2427    1.7250    0.0000 O   0  0
    2.9572    0.4875    0.0000 C   0  0
    2.9572   -0.3375    0.0000 O   0  0
  1  2  2  0
  1  6  1  0
  2  3  1  0
  3  4  2  0
  4  5  1  0
  5  6  2  0
  5  7  1  0
  7  8  1  0
 10  8  1  0
  8 11  2  0
  9 10  2  0
  9 13  1  0
 11 12  1  0
 12 13  2  0
  7 14  2  0
 12 15  1  0
 15 16  1  0
 16 17  1  0
 17 18  1  0
 18 19  1  0
 18 20  1  0
 20 21  2  0
M  END
> <Name>
SB-543668

> <OBJECTID>
9223372101282562059

> <From>
www.bindingDB.org

> <BindingDB Reactant_set_id>
39212

> <Ligand InChI>
InChI=1S/C16H15NO4/c18-12-17(20)9-10-21-15-8-4-7-14(11-15)16(19)13-5-2-1-3-6-13/h1-8,11-12,20H,9-10H2

> <Ligand InChI Key>
ZHFKBNAHHTUQBH-UHFFFAOYSA-N

> <BindingDB MonomerID>
21684

> <BindingDB Ligand Name>
N-[2-(3-benzoylphenoxy)ethyl]-N-hydroxyformamide::SB-543668

> <Target Name>
Peptide deformylase

> <Target Source Organism According to Curator or DataSource>
Streptococcus pneumoniae (strain ATCC BAA-255 / R6)

> <Ki (nM)>
nan

> <IC50 (nM)>
3900

> <Kd (nM)>
nan

> <EC50 (nM)>
nan

> <kon (M-1-s-1)>
nan

> <koff (s-1)>
nan

> <pH>
7.6

> <Temp C>
25

> <Curation/DataSource>
Curated from the literature by BindingDB

> <Article DOI>
10.1110/ps.0229303

> <BindingDB Entry DOI>
10.7270/Q2F18X1N

> <PMID>
12538898

> <PubChem AID>
aid1798110

> <Patent Number>
nan

> <Authors>
Smith, KJ; Petit, CM; Aubart, K; Smyth, M; McManus, E; Jones, J; Fosberry, A; Lewis, C; Lonetto, M; Christensen, SB

> <Date of publication>
2/28/2003

> <Date in BindingDB>
4/19/2008

> <Institution>
Gsk

> <Link to Ligand in BindingDB>
http://www.bindingdb.org/bind/chemsearch/marvin/MolStructure.jsp?monomerid=21684

> <Link to Ligand-Target Pair in BindingDB>
http://www.bindingdb.org/rwd/jsp/dbsearch/PrimarySearch_ki.jsp?energyterm=kJ/mole&tag=r21&monomerid=21684&enzyme=Peptide+deformylase&column=ki&startPg=0&Increment=50&submit=Search

> <Ligand HET ID in PDB>
SB8

> <PDB ID(s) for Ligand-Target Complex>
2AIA

> <PubChem CID of Ligand>
5289330

> <PubChem SID of Ligand>
49700791

> <ChEBI ID of Ligand>
nan

> <ChEMBL ID of Ligand>
<NA>

> <DrugBank ID of Ligand>
DB08524

> <IUPHAR_GRAC ID of Ligand>
nan

> <KEGG ID of Ligand>
<NA>

> <ZINC ID of Ligand>
<NA>

> <Number of Protein Chains in Target (bigger than 1 implies a multichain complex)>
1

> <BindingDB Target Chain Sequence>
MSAIERITKA AHLIDMNDII REGNPTLRTV AEEVTFPLSD QEIILGEKMM QFLKHSQDPV MAEKMGLRGG VGLAAPQLDI SKRIIAVLVP NIVEEGETPQ EAYDLEAIMY NPKIVSHSVQ DAALGEGEGC LSVDRNVPGY VVRHARVTVD YFDKDGEKHR IKLKGYNSIV VQHEIDHING IM
FYDRINEK DPFAVKDGLL ILE

> <PDB ID(s) of Target Chain>
4EOX,3SW8,3SVJ,3STR,1LM6,6OW7,6OW2

> <UniProt (SwissProt) Recommended Name of Target Chain>
Peptide deformylase

> <UniProt (SwissProt) Entry Name of Target Chain>
DEF_STRR6

> <UniProt (SwissProt) Primary ID of Target Chain>
Q8DP79

> <UniProt (SwissProt) Secondary ID(s) of Target Chain>
<NA>

> <UniProt (SwissProt) Alternative ID(s) of Target Chain>
nan

> <UniProt (TrEMBL) Submitted Name of Target Chain>
<NA>

> <UniProt (TrEMBL) Entry Name of Target Chain>
<NA>

> <UniProt (TrEMBL) Primary ID of Target Chain>
<NA>

> <UniProt (TrEMBL) Secondary ID(s) of Target Chain>
nan

> <UniProt (TrEMBL) Alternative ID(s) of Target Chain>
nan

> <pIC50>
-3.5911

> <Num_H_Donors_Lipinski>
1

> <Num_H_Acceptors_Lipinski>
5

> <Molecular_Weight>
285.2946

> <ALogP>
2.344

> <Num_RotatableBonds>
6

> <Molecular_PolarSurfaceArea>
66.84

> <Num_H_Acceptors>
4

> <Num_H_Donors>
1

> <Num_Rings>
2

> <Num_AromaticRings>
2

> <Molecular_FractionalPolarSurfaceArea>
0.241

> <Activity_Bin>
1

> <PLSTempModel>
-3.87952530337002

> <PLSTempModel_Residuals>
0.288425303370023

$$$$
Untitled_535
  SciTegic11182514132D

 20 21  0  0  0  0            999 V2000
   -0.7958   -0.3542    0.0000 N   0  0
   -0.0833    0.0583    0.0000 C   0  0
   -0.0833    0.8875    0.0000 C   0  0
   -0.8000    1.3000    0.0000 S   0  0
   -1.5083    0.0583    0.0000 C   0  0
   -1.5125    0.8833    0.0000 C   0  0
    0.6292    1.3000    0.0000 C   0  0
   -0.8000   -1.1792    0.0000 C   0  0
    1.3417    0.8958    0.0000 C   0  0
   -0.0958   -1.6000    0.0000 C   0  0
    0.6375   -0.3542    0.0000 O   0  0
    1.3500    0.0708    0.0000 O   0  0
    0.6250   -1.1917    0.0000 O   0  0
    2.0542    1.3083    0.0000 N   0  0
   -0.1000   -2.4250    0.0000 N   0  0
    2.7750    0.8958    0.0000 O   0  0
   -2.2333   -0.3625    0.0000 C   0  0
   -2.2333    1.2958    0.0000 C   0  0
   -2.9458    0.0500    0.0000 C   0  0
   -2.9458    0.8750    0.0000 C   0  0
  2  1  1  0
  3  2  1  0
  4  6  1  0
  5  1  1  0
  6  5  2  0
  7  3  1  0
  8  1  1  0
  9  7  1  0
 10  8  1  0
 11  2  2  0
 12  9  2  0
 13 10  2  0
 14  9  1  0
 15 10  1  0
 16 14  1  0
 17  5  1  0
 18  6  1  0
 19 17  2  0
 20 19  1  0
  4  3  1  0
 20 18  2  0
M  END
> <Name>
Untitled_535

> <OBJECTID>
9223372401930272779

> <From>
www.bindingDB.org

> <BindingDB Reactant_set_id>
50259747

> <Ligand InChI>
InChI=1S/C12H13N3O4S/c13-10(16)6-15-7-3-1-2-4-8(7)20-9(12(15)18)5-11(17)14-19/h1-4,9,19H,5-6H2,(H2,13,16)(H,14,17)

> <Ligand InChI Key>
AWDOSWMBHGGYOW-UHFFFAOYSA-N

> <BindingDB MonomerID>
50141392

> <BindingDB Ligand Name>
2-(2-Hydroxycarbamoylmethyl-3-oxo-2,3-dihydro-benzo[1,4]thiazin-4-yl)-acetamide::CHEMBL35483

> <Target Name>
Peptide deformylase

> <Target Source Organism According to Curator or DataSource>
Staphylococcus aureus (strain Mu50 / ATCC 700699)

> <Ki (nM)>
nan

> <IC50 (nM)>
168

> <Kd (nM)>
nan

> <EC50 (nM)>
nan

> <kon (M-1-s-1)>
nan

> <koff (s-1)>
nan

> <pH>
nan

> <Temp C>
nan

> <Curation/DataSource>
ChEMBL

> <Article DOI>
10.1016/j.bmcl.2004.01.014

> <BindingDB Entry DOI>
10.7270/Q2MS3S6G

> <PMID>
15006385

> <PubChem AID>
<NA>

> <Patent Number>
nan

> <Authors>
Molteni, V; He, X; Nabakka, J; Yang, K; Kreusch, A; Gordon, P; Bursulaya, B; Warner, I; Shin, T; Biorac, T; Ryder, NS; Goldberg, R; Doughty, J; He, Y

> <Date of publication>
3/9/2004

> <Date in BindingDB>
11/10/2009

> <Institution>
Genomics Institute of the Novartis Research Foundation

> <Link to Ligand in BindingDB>
http://www.bindingdb.org/bind/chemsearch/marvin/MolStructure.jsp?monomerid=50141392

> <Link to Ligand-Target Pair in BindingDB>
http://www.bindingdb.org/jsp/dbsearch/PrimarySearch_ki.jsp?energyterm=kJ/mole&tag=r21&monomerid=50141392&enzyme=Peptide+deformylase&column=ki&startPg=0&Increment=50&submit=Search

> <Ligand HET ID in PDB>
<NA>

> <PDB ID(s) for Ligand-Target Complex>
<NA>

> <PubChem CID of Ligand>
11460631

> <PubChem SID of Ligand>
104030851

> <ChEBI ID of Ligand>
nan

> <ChEMBL ID of Ligand>
CHEMBL35483

> <DrugBank ID of Ligand>
<NA>

> <IUPHAR_GRAC ID of Ligand>
nan

> <KEGG ID of Ligand>
<NA>

> <ZINC ID of Ligand>
ZINC29248538

> <Number of Protein Chains in Target (bigger than 1 implies a multichain complex)>
1

> <BindingDB Target Chain Sequence>
MLTMKDIIRDGHPTLRQKAAELELPLTKEEKETLIAMREFLVNSQDEEIAKRYGLRSGVGLAAPQINISKRMIAVLIPDDGSGKSYDYMLVNPKIVSHSVQEAYLPTGEGCLSVDDNVAGLVHRHNRITIKAKDIEGNDIQLRLKGYPAIVFQHEIDHLNGVMFYDHIDKNHPLQPHTDAVEV

> <PDB ID(s) of Target Chain>
1LM4,1LMH,1LQW,2AI9,6JFG,6JFO,6JFQ,6JFR,6JFS

> <UniProt (SwissProt) Recommended Name of Target Chain>
Peptide deformylase

> <UniProt (SwissProt) Entry Name of Target Chain>
DEF_STAAU

> <UniProt (SwissProt) Primary ID of Target Chain>
P68826

> <UniProt (SwissProt) Secondary ID(s) of Target Chain>
Q9F4L4

> <UniProt (SwissProt) Alternative ID(s) of Target Chain>
nan

> <UniProt (TrEMBL) Submitted Name of Target Chain>
<NA>

> <UniProt (TrEMBL) Entry Name of Target Chain>
<NA>

> <UniProt (TrEMBL) Primary ID of Target Chain>
<NA>

> <UniProt (TrEMBL) Secondary ID(s) of Target Chain>
nan

> <UniProt (TrEMBL) Alternative ID(s) of Target Chain>
nan

> <pIC50>
-2.2253

> <Num_H_Donors_Lipinski>
4

> <Num_H_Acceptors_Lipinski>
7

> <Molecular_Weight>
295.31432

> <ALogP>
-0.512

> <Num_RotatableBonds>
4

> <Molecular_PolarSurfaceArea>
138.03

> <Num_H_Acceptors>
5

> <Num_H_Donors>
3

> <Num_Rings>
2

> <Num_AromaticRings>
1

> <Molecular_FractionalPolarSurfaceArea>
0.503

> <Activity_Bin>
4

> <PLSTempModel>
-2.57994499460339

> <PLSTempModel_Residuals>
0.354644994603388

$$$$
Untitled_233
  SciTegic11182514132D

 33 35  0  0  0  0            999 V2000
    9.1125  -15.8917    0.0000 C   0  0  2  0  0  0
    9.8270  -15.4792    0.0000 C   0  0
    8.3980  -15.4792    0.0000 C   0  0
    7.6836  -15.8917    0.0000 N   0  0
    8.3980  -14.6542    0.0000 O   0  0
   10.5414  -15.8917    0.0000 N   0  0
   11.2559  -15.4792    0.0000 C   0  0
   10.5414  -16.7167    0.0000 O   0  0
   11.2559  -14.6542    0.0000 O   0  0
    9.1132  -16.7166    0.0000 C   0  0
    8.4382  -17.1915    0.0000 C   0  0
    7.6555  -16.9242    0.0000 C   0  0
    7.1607  -17.5843    0.0000 C   0  0
    7.6356  -18.2590    0.0000 C   0  0
    8.4239  -18.0157    0.0000 C   0  0
    6.9260  -15.5544    0.0000 C   0  0  1  0  0  0
    6.3739  -16.1675    0.0000 C   0  0
    6.7865  -16.8820    0.0000 C   0  0
    7.5934  -16.7103    0.0000 C   0  0
    6.7544  -14.7474    0.0000 C   0  0
    7.3675  -14.1954    0.0000 O   0  0
    5.9698  -14.4924    0.0000 N   0  0
    5.7983  -13.6855    0.0000 C   0  0
    6.4114  -13.1334    0.0000 O   0  0
    5.0137  -13.4305    0.0000 N   0  0
    4.8422  -12.6236    0.0000 C   0  0
    5.4552  -12.0715    0.0000 C   0  0
    5.2837  -11.2646    0.0000 C   0  0
    5.8982  -10.7155    0.0000 C   0  0
    5.7272   -9.9092    0.0000 C   0  0
    4.9419   -9.6536    0.0000 N   0  0
    4.3274  -10.2105    0.0000 C   0  0
    4.5016  -11.0147    0.0000 C   0  0
  7  9  2  0
  3  5  2  0
 16 17  1  0
 17 18  1  0
 18 19  1  0
 19  4  1  0
  1 10  1  1
 16 20  1  1
  1  3  1  0
 20 21  2  0
 10 11  1  0
 20 22  1  0
 11 12  1  0
 22 23  1  0
  2  6  1  0
 23 24  2  0
  1  2  1  0
 23 25  1  0
  6  7  1  0
 25 26  1  0
  3  4  1  0
 26 27  1  0
 12 13  1  0
 27 28  1  0
 13 14  1  0
 28 29  2  0
 14 15  1  0
 29 30  1  0
 15 11  1  0
 30 31  2  0
 16  4  1  0
 31 32  1  0
  6  8  1  0
 32 33  2  0
 33 28  1  0
M  END
> <Name>
Untitled_233

> <OBJECTID>
9223372230131580939

> <From>
www.bindingDB.org

> <BindingDB Reactant_set_id>
50935626

> <Ligand InChI>
InChI=1S/C23H33N5O5/c29-16-27(33)15-19(14-18-4-1-2-5-18)22(31)28-13-3-6-20(28)21(30)26-23(32)25-12-9-17-7-10-24-11-8-17/h7-8,10-11,16,18-20,33H,1-6,9,12-15H2,(H2,25,26,30,32)/t19-,20+/m1/s1

> <Ligand InChI Key>
ODZRPFPJLJDKLB-UXHICEINSA-N

> <BindingDB MonomerID>
50383968

> <BindingDB Ligand Name>
CHEMBL2032140

> <Target Name>
Peptide deformylase

> <Target Source Organism According to Curator or DataSource>
Staphylococcus aureus

> <Ki (nM)>
nan

> <IC50 (nM)>
1.7

> <Kd (nM)>
nan

> <EC50 (nM)>
nan

> <kon (M-1-s-1)>
nan

> <koff (s-1)>
nan

> <pH>
nan

> <Temp C>
nan

> <Curation/DataSource>
ChEMBL

> <Article DOI>
10.1016/j.bmcl.2012.04.086

> <BindingDB Entry DOI>
10.7270/Q2K64K3V

> <PMID>
22579486

> <PubChem AID>
<NA>

> <Patent Number>
nan

> <Authors>
Axten, JM; Medina, JR; Blackledge, CW; Duquenne, C; Grant, SW; Bobko, MA; Peng, T; Miller, WH; Pinckney, T; Gallagher, TF; Kulkarni, S; Lewandowski, T; Van Aller, GS; Zonis, R; Ward, P; Campobasso, N

> <Date of publication>
5/29/2012

> <Date in BindingDB>
2/7/2013

> <Institution>
GlaxoSmithKline

> <Link to Ligand in BindingDB>
http://www.bindingdb.org/bind/chemsearch/marvin/MolStructure.jsp?monomerid=50383968

> <Link to Ligand-Target Pair in BindingDB>
http://www.bindingdb.org/jsp/dbsearch/PrimarySearch_ki.jsp?energyterm=kJ/mole&tag=r21&monomerid=50383968&enzyme=Peptide+deformylase&column=ki&startPg=0&Increment=50&submit=Search

> <Ligand HET ID in PDB>
<NA>

> <PDB ID(s) for Ligand-Target Complex>
<NA>

> <PubChem CID of Ligand>
57878131

> <PubChem SID of Ligand>
160863051

> <ChEBI ID of Ligand>
nan

> <ChEMBL ID of Ligand>
CHEMBL2032140

> <DrugBank ID of Ligand>
<NA>

> <IUPHAR_GRAC ID of Ligand>
nan

> <KEGG ID of Ligand>
<NA>

> <ZINC ID of Ligand>
ZINC84654172

> <Number of Protein Chains in Target (bigger than 1 implies a multichain complex)>
1

> <BindingDB Target Chain Sequence>
MLTMKDIIRD GHPTLRQKAA ELELPLTKEE KETLIAMREF LVNSQDEEIA
KRYGLRSGVG LAAPQINISK RMIAVLIPDD GSGKSYDYML VNPKIVSHSV
QEAYLPTGEG CLSVDDNVAG LVHRHNRITI KAKDIEGNDI QLRLKGYPAI
VFQHEIDHLN GVMFYDHIDK NHPLQPHTDA VEV

> <PDB ID(s) of Target Chain>
1LM4,1LMH,1LQW,2AI9,6JFG,6JFO,6JFQ,6JFR,6JFS

> <UniProt (SwissProt) Recommended Name of Target Chain>
Peptide deformylase

> <UniProt (SwissProt) Entry Name of Target Chain>
DEF_STAAM

> <UniProt (SwissProt) Primary ID of Target Chain>
P68825

> <UniProt (SwissProt) Secondary ID(s) of Target Chain>
Q9F4L4

> <UniProt (SwissProt) Alternative ID(s) of Target Chain>
nan

> <UniProt (TrEMBL) Submitted Name of Target Chain>
<NA>

> <UniProt (TrEMBL) Entry Name of Target Chain>
<NA>

> <UniProt (TrEMBL) Primary ID of Target Chain>
<NA>

> <UniProt (TrEMBL) Secondary ID(s) of Target Chain>
nan

> <UniProt (TrEMBL) Alternative ID(s) of Target Chain>
nan

> <pIC50>
-0.2304

> <Num_H_Donors_Lipinski>
3

> <Num_H_Acceptors_Lipinski>
10

> <Molecular_Weight>
459.53862

> <ALogP>
1.179

> <Num_RotatableBonds>
9

> <Molecular_PolarSurfaceArea>
131.94

> <Num_H_Acceptors>
6

> <Num_H_Donors>
3

> <Num_Rings>
3

> <Num_AromaticRings>
1

> <Molecular_FractionalPolarSurfaceArea>
0.293

> <Activity_Bin>
8

> <PLSTempModel>
0.159313950708067

> <PLSTempModel_Residuals>
-0.389713950708067

$$$$
Untitled_570
  SciTegic11182514132D

 19 20  0  0  0  0            999 V2000
   -0.7958   -0.3542    0.0000 N   0  0
   -0.0833    0.0583    0.0000 C   0  0
   -0.0833    0.8875    0.0000 C   0  0
   -0.8000    1.3000    0.0000 S   0  0
   -1.5083    0.0583    0.0000 C   0  0
   -1.5125    0.8833    0.0000 C   0  0
    0.6292    1.3000    0.0000 C   0  0
    0.6167   -2.0125    0.0000 N   0  0
    1.3417    0.8958    0.0000 C   0  0
   -0.0958   -1.6000    0.0000 C   0  0
    0.6375   -0.3542    0.0000 O   0  0
   -0.8000   -1.1792    0.0000 C   0  0
    1.3500    0.0708    0.0000 O   0  0
    2.0542    1.3083    0.0000 N   0  0
    2.7750    0.8958    0.0000 O   0  0
   -2.2333   -0.3625    0.0000 C   0  0
   -2.2333    1.2958    0.0000 C   0  0
   -2.9458    0.0500    0.0000 C   0  0
   -2.9458    0.8750    0.0000 C   0  0
  2  1  1  0
  3  2  1  0
  4  6  1  0
  5  1  1  0
  6  5  2  0
  7  3  1  0
  8 10  3  0
  9  7  1  0
 10 12  1  0
 11  2  2  0
 12  1  1  0
 13  9  2  0
 14  9  1  0
 15 14  1  0
 16  5  1  0
 17  6  1  0
 18 16  2  0
 19 18  1  0
  4  3  1  0
 19 17  2  0
M  END
> <Name>
Untitled_570

> <OBJECTID>
9223372453469880331

> <From>
www.bindingDB.org

> <BindingDB Reactant_set_id>
50259733

> <Ligand InChI>
InChI=1S/C12H11N3O3S/c13-5-6-15-8-3-1-2-4-9(8)19-10(12(15)17)7-11(16)14-18/h1-4,10,18H,6-7H2,(H,14,16)

> <Ligand InChI Key>
DUGUZRBITYVBPY-UHFFFAOYSA-N

> <BindingDB MonomerID>
50141377

> <BindingDB Ligand Name>
2-(4-Cyanomethyl-3-oxo-3,4-dihydro-2H-benzo[1,4]thiazin-2-yl)-N-hydroxy-acetamide::CHEMBL287061

> <Target Name>
Peptide deformylase

> <Target Source Organism According to Curator or DataSource>
Staphylococcus aureus (strain Mu50 / ATCC 700699)

> <Ki (nM)>
nan

> <IC50 (nM)>
515

> <Kd (nM)>
nan

> <EC50 (nM)>
nan

> <kon (M-1-s-1)>
nan

> <koff (s-1)>
nan

> <pH>
nan

> <Temp C>
nan

> <Curation/DataSource>
ChEMBL

> <Article DOI>
10.1016/j.bmcl.2004.01.014

> <BindingDB Entry DOI>
10.7270/Q2MS3S6G

> <PMID>
15006385

> <PubChem AID>
<NA>

> <Patent Number>
nan

> <Authors>
Molteni, V; He, X; Nabakka, J; Yang, K; Kreusch, A; Gordon, P; Bursulaya, B; Warner, I; Shin, T; Biorac, T; Ryder, NS; Goldberg, R; Doughty, J; He, Y

> <Date of publication>
3/9/2004

> <Date in BindingDB>
11/10/2009

> <Institution>
Genomics Institute of the Novartis Research Foundation

> <Link to Ligand in BindingDB>
http://www.bindingdb.org/bind/chemsearch/marvin/MolStructure.jsp?monomerid=50141377

> <Link to Ligand-Target Pair in BindingDB>
http://www.bindingdb.org/jsp/dbsearch/PrimarySearch_ki.jsp?energyterm=kJ/mole&tag=r21&monomerid=50141377&enzyme=Peptide+deformylase&column=ki&startPg=0&Increment=50&submit=Search

> <Ligand HET ID in PDB>
<NA>

> <PDB ID(s) for Ligand-Target Complex>
<NA>

> <PubChem CID of Ligand>
11242878

> <PubChem SID of Ligand>
104030836

> <ChEBI ID of Ligand>
nan

> <ChEMBL ID of Ligand>
CHEMBL287061

> <DrugBank ID of Ligand>
<NA>

> <IUPHAR_GRAC ID of Ligand>
nan

> <KEGG ID of Ligand>
<NA>

> <ZINC ID of Ligand>
ZINC29307446

> <Number of Protein Chains in Target (bigger than 1 implies a multichain complex)>
1

> <BindingDB Target Chain Sequence>
MLTMKDIIRDGHPTLRQKAAELELPLTKEEKETLIAMREFLVNSQDEEIAKRYGLRSGVGLAAPQINISKRMIAVLIPDDGSGKSYDYMLVNPKIVSHSVQEAYLPTGEGCLSVDDNVAGLVHRHNRITIKAKDIEGNDIQLRLKGYPAIVFQHEIDHLNGVMFYDHIDKNHPLQPHTDAVEV

> <PDB ID(s) of Target Chain>
1LM4,1LMH,1LQW,2AI9,6JFG,6JFO,6JFQ,6JFR,6JFS

> <UniProt (SwissProt) Recommended Name of Target Chain>
Peptide deformylase

> <UniProt (SwissProt) Entry Name of Target Chain>
DEF_STAAU

> <UniProt (SwissProt) Primary ID of Target Chain>
P68826

> <UniProt (SwissProt) Secondary ID(s) of Target Chain>
Q9F4L4

> <UniProt (SwissProt) Alternative ID(s) of Target Chain>
nan

> <UniProt (TrEMBL) Submitted Name of Target Chain>
<NA>

> <UniProt (TrEMBL) Entry Name of Target Chain>
<NA>

> <UniProt (TrEMBL) Primary ID of Target Chain>
<NA>

> <UniProt (TrEMBL) Secondary ID(s) of Target Chain>
nan

> <UniProt (TrEMBL) Alternative ID(s) of Target Chain>
nan

> <pIC50>
-2.7118

> <Num_H_Donors_Lipinski>
2

> <Num_H_Acceptors_Lipinski>
6

> <Molecular_Weight>
277.29904

> <ALogP>
0.364

> <Num_RotatableBonds>
3

> <Molecular_PolarSurfaceArea>
118.73

> <Num_H_Acceptors>
5

> <Num_H_Donors>
2

> <Num_Rings>
2

> <Num_AromaticRings>
1

> <Molecular_FractionalPolarSurfaceArea>
0.456

> <Activity_Bin>
2

> <PLSTempModel>
-2.62508232602243

> <PLSTempModel_Residuals>
-8.67176739775708e-002

$$$$
Untitled_194
  SciTegic11182514132D

 30 32  0  0  0  0            999 V2000
   27.0458   -8.3417    0.0000 C   0  0  2  0  0  0
   27.7603   -7.9292    0.0000 C   0  0
   26.3314   -7.9292    0.0000 C   0  0
   25.6169   -8.3417    0.0000 N   0  0
   26.3314   -7.1042    0.0000 O   0  0
   28.4748   -8.3417    0.0000 N   0  0
   29.1892   -7.9292    0.0000 C   0  0
   28.4748   -9.1667    0.0000 O   0  0
   29.1892   -7.1042    0.0000 O   0  0
   27.0465   -9.1666    0.0000 C   0  0
   26.3716   -9.6415    0.0000 C   0  0
   25.5889   -9.3742    0.0000 C   0  0
   25.0940  -10.0343    0.0000 C   0  0
   25.5689  -10.7090    0.0000 C   0  0
   26.3572  -10.4657    0.0000 C   0  0
   24.8593   -8.0044    0.0000 C   0  0  1  0  0  0
   24.3073   -8.6175    0.0000 C   0  0
   24.7198   -9.3320    0.0000 C   0  0
   25.5267   -9.1603    0.0000 C   0  0
   24.6878   -7.1974    0.0000 C   0  0
   25.3009   -6.6454    0.0000 O   0  0
   23.9032   -6.9424    0.0000 N   0  0
   23.7316   -6.1355    0.0000 C   0  0
   22.9470   -5.8805    0.0000 C   0  0
   24.3447   -5.5834    0.0000 O   0  0
   22.7788   -5.0734    0.0000 C   0  0
   21.9982   -4.8177    0.0000 C   0  0
   21.3820   -5.3668    0.0000 C   0  0
   21.5518   -6.1751    0.0000 C   0  0
   22.3378   -6.4344    0.0000 C   0  0
 15 11  1  0
 16  4  1  0
  6  8  1  0
  7  9  2  0
  3  5  2  0
 16 17  1  0
 17 18  1  0
 18 19  1  0
 19  4  1  0
  1 10  1  1
 16 20  1  1
  1  3  1  0
 20 21  2  0
 10 11  1  0
 20 22  1  0
 11 12  1  0
 22 23  1  0
  2  6  1  0
 23 24  1  0
  1  2  1  0
 23 25  2  0
 24 26  1  0
  6  7  1  0
  3  4  1  0
 12 13  1  0
 13 14  1  0
 14 15  1  0
 24 30  1  0
 26 27  1  0
 27 28  1  0
 28 29  1  0
 29 30  1  0
M  END
> <Name>
Untitled_194

> <OBJECTID>
9223372131347333131

> <From>
www.bindingDB.org

> <BindingDB Reactant_set_id>
50935640

> <Ligand InChI>
InChI=1S/C22H35N3O5/c26-15-24(30)14-18(13-16-7-4-5-8-16)22(29)25-12-6-11-19(25)21(28)23-20(27)17-9-2-1-3-10-17/h15-19,30H,1-14H2,(H,23,27,28)/t18-,19+/m1/s1

> <Ligand InChI Key>
QHQGTBCSLAVMEP-MOPGFXCFSA-N

> <BindingDB MonomerID>
50383981

> <BindingDB Ligand Name>
CHEMBL2032118

> <Target Name>
Peptide deformylase

> <Target Source Organism According to Curator or DataSource>
Streptococcus pneumoniae serotype 4 (strain ATCC BAA-334 / TIGR4)

> <Ki (nM)>
nan

> <IC50 (nM)>
0.5

> <Kd (nM)>
nan

> <EC50 (nM)>
nan

> <kon (M-1-s-1)>
nan

> <koff (s-1)>
nan

> <pH>
nan

> <Temp C>
nan

> <Curation/DataSource>
ChEMBL

> <Article DOI>
10.1016/j.bmcl.2012.04.086

> <BindingDB Entry DOI>
10.7270/Q2K64K3V

> <PMID>
22579486

> <PubChem AID>
<NA>

> <Patent Number>
nan

> <Authors>
Axten, JM; Medina, JR; Blackledge, CW; Duquenne, C; Grant, SW; Bobko, MA; Peng, T; Miller, WH; Pinckney, T; Gallagher, TF; Kulkarni, S; Lewandowski, T; Van Aller, GS; Zonis, R; Ward, P; Campobasso, N

> <Date of publication>
5/29/2012

> <Date in BindingDB>
2/7/2013

> <Institution>
GlaxoSmithKline

> <Link to Ligand in BindingDB>
http://www.bindingdb.org/bind/chemsearch/marvin/MolStructure.jsp?monomerid=50383981

> <Link to Ligand-Target Pair in BindingDB>
http://www.bindingdb.org/jsp/dbsearch/PrimarySearch_ki.jsp?energyterm=kJ/mole&tag=r21&monomerid=50383981&enzyme=Peptide+deformylase&column=ki&startPg=0&Increment=50&submit=Search

> <Ligand HET ID in PDB>
<NA>

> <PDB ID(s) for Ligand-Target Complex>
<NA>

> <PubChem CID of Ligand>
16036661

> <PubChem SID of Ligand>
160863064

> <ChEBI ID of Ligand>
nan

> <ChEMBL ID of Ligand>
CHEMBL2032118

> <DrugBank ID of Ligand>
<NA>

> <IUPHAR_GRAC ID of Ligand>
nan

> <KEGG ID of Ligand>
<NA>

> <ZINC ID of Ligand>
ZINC34874570

> <Number of Protein Chains in Target (bigger than 1 implies a multichain complex)>
1

> <BindingDB Target Chain Sequence>
MSAIERITKAAHLIDMNDIIREGNPTLRAIAEEVTFPLSDQEIILGEKMMQFLKHSQDPVMAEKMGLRGGVGLAAPQLDISKRIIAVLVPNIVEEGETPQEAYDLEAIMYNPKIVSHSVQDAALGEGEGCLSVDRNVPGYVVRHARVTVDYFDKDGEKHRIKLKGYNSIVVQHEIDHINGIMFYDRINEKDPFAVKDGLL
ILE

> <PDB ID(s) of Target Chain>
<NA>

> <UniProt (SwissProt) Recommended Name of Target Chain>
Peptide deformylase

> <UniProt (SwissProt) Entry Name of Target Chain>
DEF_STRPN

> <UniProt (SwissProt) Primary ID of Target Chain>
Q9F2F0

> <UniProt (SwissProt) Secondary ID(s) of Target Chain>
<NA>

> <UniProt (SwissProt) Alternative ID(s) of Target Chain>
nan

> <UniProt (TrEMBL) Submitted Name of Target Chain>
<NA>

> <UniProt (TrEMBL) Entry Name of Target Chain>
<NA>

> <UniProt (TrEMBL) Primary ID of Target Chain>
<NA>

> <UniProt (TrEMBL) Secondary ID(s) of Target Chain>
nan

> <UniProt (TrEMBL) Alternative ID(s) of Target Chain>
nan

> <pIC50>
0.301

> <Num_H_Donors_Lipinski>
2

> <Num_H_Acceptors_Lipinski>
8

> <Molecular_Weight>
421.5304

> <ALogP>
2.555

> <Num_RotatableBonds>
7

> <Molecular_PolarSurfaceArea>
107.02

> <Num_H_Acceptors>
5

> <Num_H_Donors>
2

> <Num_Rings>
3

> <Num_AromaticRings>
0

> <Molecular_FractionalPolarSurfaceArea>
0.26

> <Activity_Bin>
9

> <PLSTempModel>
-0.115066925697494

> <PLSTempModel_Residuals>
0.416066925697494

$$$$
Untitled_538
  SciTegic11182514132D

 20 22  0  0  0  0            999 V2000
   -0.8583   -0.3875    0.0000 N   0  0
   -0.1458    0.0333    0.0000 C   0  0
   -0.1458    0.8583    0.0000 C   0  0
   -1.5708    0.0250    0.0000 C   0  0
   -1.5750    0.8500    0.0000 C   0  0
   -0.8583   -1.2125    0.0000 C   0  0
   -0.8625    1.2708    0.0000 C   0  0
   -1.5708   -1.6250    0.0000 C   0  0
    1.2792    0.8625    0.0000 C   0  0
    0.5667    1.2708    0.0000 C   0  0
    0.5750   -0.3792    0.0000 O   0  0
   -2.3958   -1.6292    0.0000 C   0  0
   -1.9833   -2.3417    0.0000 C   0  0
    1.2875    0.0375    0.0000 O   0  0
    1.9917    1.2750    0.0000 N   0  0
    2.7125    0.8708    0.0000 O   0  0
   -2.2958   -0.3917    0.0000 C   0  0
   -2.2958    1.2625    0.0000 C   0  0
   -3.0083    0.0208    0.0000 C   0  0
   -3.0083    0.8500    0.0000 C   0  0
  2  1  1  0
  3  2  1  0
  4  1  1  0
  5  4  2  0
  6  1  1  0
  7  5  1  0
  8  6  1  0
  9 10  1  0
 10  3  1  0
 11  2  2  0
 12  8  1  0
 13  8  1  0
 14  9  2  0
 15  9  1  0
 16 15  1  0
 17  4  1  0
 18  5  1  0
 19 17  2  0
 20 19  1  0
 12 13  1  0
  7  3  1  0
 20 18  2  0
M  END
> <Name>
Untitled_538

> <OBJECTID>
9223372410520207371

> <From>
www.bindingDB.org

> <BindingDB Reactant_set_id>
50259744

> <Ligand InChI>
InChI=1S/C15H18N2O3/c18-14(16-20)8-12-7-11-3-1-2-4-13(11)17(15(12)19)9-10-5-6-10/h1-4,10,12,20H,5-9H2,(H,16,18)

> <Ligand InChI Key>
FSKLHYCOIWIGEA-UHFFFAOYSA-N

> <BindingDB MonomerID>
50141387

> <BindingDB Ligand Name>
2-(1-Cyclopropylmethyl-2-oxo-1,2,3,4-tetrahydro-quinolin-3-yl)-N-hydroxy-acetamide::CHEMBL286560

> <Target Name>
Peptide deformylase

> <Target Source Organism According to Curator or DataSource>
Staphylococcus aureus (strain Mu50 / ATCC 700699)

> <Ki (nM)>
nan

> <IC50 (nM)>
175

> <Kd (nM)>
nan

> <EC50 (nM)>
nan

> <kon (M-1-s-1)>
nan

> <koff (s-1)>
nan

> <pH>
nan

> <Temp C>
nan

> <Curation/DataSource>
ChEMBL

> <Article DOI>
10.1016/j.bmcl.2004.01.014

> <BindingDB Entry DOI>
10.7270/Q2MS3S6G

> <PMID>
15006385

> <PubChem AID>
<NA>

> <Patent Number>
nan

> <Authors>
Molteni, V; He, X; Nabakka, J; Yang, K; Kreusch, A; Gordon, P; Bursulaya, B; Warner, I; Shin, T; Biorac, T; Ryder, NS; Goldberg, R; Doughty, J; He, Y

> <Date of publication>
3/9/2004

> <Date in BindingDB>
11/10/2009

> <Institution>
Genomics Institute of the Novartis Research Foundation

> <Link to Ligand in BindingDB>
http://www.bindingdb.org/bind/chemsearch/marvin/MolStructure.jsp?monomerid=50141387

> <Link to Ligand-Target Pair in BindingDB>
http://www.bindingdb.org/jsp/dbsearch/PrimarySearch_ki.jsp?energyterm=kJ/mole&tag=r21&monomerid=50141387&enzyme=Peptide+deformylase&column=ki&startPg=0&Increment=50&submit=Search

> <Ligand HET ID in PDB>
<NA>

> <PDB ID(s) for Ligand-Target Complex>
<NA>

> <PubChem CID of Ligand>
44283042

> <PubChem SID of Ligand>
104030846

> <ChEBI ID of Ligand>
nan

> <ChEMBL ID of Ligand>
CHEMBL286560

> <DrugBank ID of Ligand>
<NA>

> <IUPHAR_GRAC ID of Ligand>
nan

> <KEGG ID of Ligand>
<NA>

> <ZINC ID of Ligand>
ZINC29245340

> <Number of Protein Chains in Target (bigger than 1 implies a multichain complex)>
1

> <BindingDB Target Chain Sequence>
MLTMKDIIRDGHPTLRQKAAELELPLTKEEKETLIAMREFLVNSQDEEIAKRYGLRSGVGLAAPQINISKRMIAVLIPDDGSGKSYDYMLVNPKIVSHSVQEAYLPTGEGCLSVDDNVAGLVHRHNRITIKAKDIEGNDIQLRLKGYPAIVFQHEIDHLNGVMFYDHIDKNHPLQPHTDAVEV

> <PDB ID(s) of Target Chain>
1LM4,1LMH,1LQW,2AI9,6JFG,6JFO,6JFQ,6JFR,6JFS

> <UniProt (SwissProt) Recommended Name of Target Chain>
Peptide deformylase

> <UniProt (SwissProt) Entry Name of Target Chain>
DEF_STAAU

> <UniProt (SwissProt) Primary ID of Target Chain>
P68826

> <UniProt (SwissProt) Secondary ID(s) of Target Chain>
Q9F4L4

> <UniProt (SwissProt) Alternative ID(s) of Target Chain>
nan

> <UniProt (TrEMBL) Submitted Name of Target Chain>
<NA>

> <UniProt (TrEMBL) Entry Name of Target Chain>
<NA>

> <UniProt (TrEMBL) Primary ID of Target Chain>
<NA>

> <UniProt (TrEMBL) Secondary ID(s) of Target Chain>
nan

> <UniProt (TrEMBL) Alternative ID(s) of Target Chain>
nan

> <pIC50>
-2.243

> <Num_H_Donors_Lipinski>
2

> <Num_H_Acceptors_Lipinski>
5

> <Molecular_Weight>
274.31502

> <ALogP>
1.327

> <Num_RotatableBonds>
4

> <Molecular_PolarSurfaceArea>
69.64

> <Num_H_Acceptors>
3

> <Num_H_Donors>
2

> <Num_Rings>
3

> <Num_AromaticRings>
1

> <Molecular_FractionalPolarSurfaceArea>
0.272

> <Activity_Bin>
3

> <PLSTempModel>
-1.92329014252916

> <PLSTempModel_Residuals>
-0.319709857470839

$$$$
Untitled_232
  SciTegic11182514132D

 28 29  0  0  0  0            999 V2000
   17.6333   -0.6917    0.0000 C   0  0  2  0  0  0
   18.3478   -0.2792    0.0000 C   0  0
   16.9189   -0.2792    0.0000 C   0  0
   16.2044   -0.6917    0.0000 N   0  0
   16.9189    0.5458    0.0000 O   0  0
   19.0623   -0.6917    0.0000 N   0  0
   19.7767   -0.2792    0.0000 C   0  0
   19.0623   -1.5167    0.0000 O   0  0
   19.7767    0.5458    0.0000 O   0  0
   17.6340   -1.5166    0.0000 C   0  0
   16.9591   -1.9915    0.0000 C   0  0
   16.1764   -1.7242    0.0000 C   0  0
   15.6815   -2.3843    0.0000 C   0  0
   16.1564   -3.0590    0.0000 C   0  0
   16.9447   -2.8157    0.0000 C   0  0
   15.4468   -0.3544    0.0000 C   0  0  1  0  0  0
   14.8948   -0.9675    0.0000 C   0  0
   15.3073   -1.6820    0.0000 C   0  0
   16.1142   -1.5103    0.0000 C   0  0
   15.2753    0.4526    0.0000 C   0  0
   15.8884    1.0046    0.0000 O   0  0
   14.4907    0.7076    0.0000 N   0  0
   14.3191    1.5145    0.0000 C   0  0
   14.9322    2.0666    0.0000 O   0  0
   13.5345    1.7695    0.0000 N   0  0
   13.3630    2.5764    0.0000 C   0  0
   12.5784    2.8314    0.0000 C   0  0
   13.9761    3.1285    0.0000 C   0  0
 13 14  1  0
 14 15  1  0
 15 11  1  0
 16  4  1  0
  6  8  1  0
  7  9  2  0
  3  5  2  0
 16 17  1  0
 17 18  1  0
 18 19  1  0
 19  4  1  0
  1 10  1  1
 16 20  1  1
  1  3  1  0
 20 21  2  0
 10 11  1  0
 20 22  1  0
 11 12  1  0
 22 23  1  0
  2  6  1  0
 23 24  2  0
  1  2  1  0
 23 25  1  0
  6  7  1  0
 25 26  1  0
  3  4  1  0
 26 27  1  0
 12 13  1  0
 26 28  1  0
M  END
> <Name>
Untitled_232

> <OBJECTID>
9223372225836613643

> <From>
www.bindingDB.org

> <BindingDB Reactant_set_id>
50935691

> <Ligand InChI>
InChI=1S/C19H32N4O5/c1-13(2)20-19(27)21-17(25)16-8-5-9-23(16)18(26)15(11-22(28)12-24)10-14-6-3-4-7-14/h12-16,28H,3-11H2,1-2H3,(H2,20,21,25,27)/t15-,16+/m1/s1

> <Ligand InChI Key>
WOLNWDIQVHDQBR-CVEARBPZSA-N

> <BindingDB MonomerID>
50383993

> <BindingDB Ligand Name>
CHEMBL2032131

> <Target Name>
Peptide deformylase

> <Target Source Organism According to Curator or DataSource>
Staphylococcus aureus

> <Ki (nM)>
nan

> <IC50 (nM)>
1.6

> <Kd (nM)>
nan

> <EC50 (nM)>
nan

> <kon (M-1-s-1)>
nan

> <koff (s-1)>
nan

> <pH>
nan

> <Temp C>
nan

> <Curation/DataSource>
ChEMBL

> <Article DOI>
10.1016/j.bmcl.2012.04.086

> <BindingDB Entry DOI>
10.7270/Q2K64K3V

> <PMID>
22579486

> <PubChem AID>
<NA>

> <Patent Number>
nan

> <Authors>
Axten, JM; Medina, JR; Blackledge, CW; Duquenne, C; Grant, SW; Bobko, MA; Peng, T; Miller, WH; Pinckney, T; Gallagher, TF; Kulkarni, S; Lewandowski, T; Van Aller, GS; Zonis, R; Ward, P; Campobasso, N

> <Date of publication>
5/29/2012

> <Date in BindingDB>
2/7/2013

> <Institution>
GlaxoSmithKline

> <Link to Ligand in BindingDB>
http://www.bindingdb.org/bind/chemsearch/marvin/MolStructure.jsp?monomerid=50383993

> <Link to Ligand-Target Pair in BindingDB>
http://www.bindingdb.org/jsp/dbsearch/PrimarySearch_ki.jsp?energyterm=kJ/mole&tag=r21&monomerid=50383993&enzyme=Peptide+deformylase&column=ki&startPg=0&Increment=50&submit=Search

> <Ligand HET ID in PDB>
<NA>

> <PDB ID(s) for Ligand-Target Complex>
<NA>

> <PubChem CID of Ligand>
57878122

> <PubChem SID of Ligand>
160863076

> <ChEBI ID of Ligand>
nan

> <ChEMBL ID of Ligand>
CHEMBL2032131

> <DrugBank ID of Ligand>
<NA>

> <IUPHAR_GRAC ID of Ligand>
nan

> <KEGG ID of Ligand>
<NA>

> <ZINC ID of Ligand>
ZINC84671297

> <Number of Protein Chains in Target (bigger than 1 implies a multichain complex)>
1

> <BindingDB Target Chain Sequence>
MLTMKDIIRD GHPTLRQKAA ELELPLTKEE KETLIAMREF LVNSQDEEIA
KRYGLRSGVG LAAPQINISK RMIAVLIPDD GSGKSYDYML VNPKIVSHSV
QEAYLPTGEG CLSVDDNVAG LVHRHNRITI KAKDIEGNDI QLRLKGYPAI
VFQHEIDHLN GVMFYDHIDK NHPLQPHTDA VEV

> <PDB ID(s) of Target Chain>
1LM4,1LMH,1LQW,2AI9,6JFG,6JFO,6JFQ,6JFR,6JFS

> <UniProt (SwissProt) Recommended Name of Target Chain>
Peptide deformylase

> <UniProt (SwissProt) Entry Name of Target Chain>
DEF_STAAM

> <UniProt (SwissProt) Primary ID of Target Chain>
P68825

> <UniProt (SwissProt) Secondary ID(s) of Target Chain>
Q9F4L4

> <UniProt (SwissProt) Alternative ID(s) of Target Chain>
nan

> <UniProt (TrEMBL) Submitted Name of Target Chain>
<NA>

> <UniProt (TrEMBL) Entry Name of Target Chain>
<NA>

> <UniProt (TrEMBL) Primary ID of Target Chain>
<NA>

> <UniProt (TrEMBL) Secondary ID(s) of Target Chain>
nan

> <UniProt (TrEMBL) Alternative ID(s) of Target Chain>
nan

> <pIC50>
-0.2041

> <Num_H_Donors_Lipinski>
3

> <Num_H_Acceptors_Lipinski>
9

> <Molecular_Weight>
396.48118

> <ALogP>
1.151

> <Num_RotatableBonds>
7

> <Molecular_PolarSurfaceArea>
119.05

> <Num_H_Acceptors>
5

> <Num_H_Donors>
3

> <Num_Rings>
2

> <Num_AromaticRings>
0

> <Molecular_FractionalPolarSurfaceArea>
0.298

> <Activity_Bin>
8

> <PLSTempModel>
0.49570429545771

> <PLSTempModel_Residuals>
-0.69980429545771

$$$$
Untitled_281
  SciTegic11182514132D

 25 26  0  0  0  0            999 V2000
    0.3042   -1.1125    0.0000 C   0  0  2  0  0  0
    1.0186   -0.7000    0.0000 C   0  0
   -0.4103   -0.7000    0.0000 C   0  0
   -1.1248   -1.1125    0.0000 N   0  0
   -0.4103    0.1250    0.0000 O   0  0
    1.7331   -1.1125    0.0000 N   0  0
    2.4476   -0.7000    0.0000 C   0  0
    1.7331   -1.9375    0.0000 O   0  0
    2.4476    0.1250    0.0000 O   0  0
    0.3048   -1.9374    0.0000 C   0  0
   -0.3701   -2.4124    0.0000 C   0  0
   -1.1528   -2.1450    0.0000 C   0  0
   -1.6477   -2.8051    0.0000 C   0  0
   -1.1728   -3.4798    0.0000 C   0  0
   -0.3845   -3.2365    0.0000 C   0  0
   -1.8824   -0.7752    0.0000 C   0  0  1  0  0  0
   -2.4344   -1.3883    0.0000 C   0  0
   -2.0219   -2.1028    0.0000 C   0  0
   -1.2150   -1.9312    0.0000 C   0  0
   -2.0539    0.0318    0.0000 C   0  0
   -1.4408    0.5838    0.0000 O   0  0
   -2.8385    0.2867    0.0000 N   0  0
   -3.0100    1.0937    0.0000 C   0  0
   -3.7947    1.3486    0.0000 C   0  0
   -2.3969    1.6457    0.0000 O   0  0
  6  7  1  0
  3  4  1  0
 12 13  1  0
 13 14  1  0
 14 15  1  0
 15 11  1  0
 16  4  1  0
  6  8  1  0
  7  9  2  0
  3  5  2  0
 16 17  1  0
 17 18  1  0
 18 19  1  0
 19  4  1  0
  1 10  1  1
 16 20  1  1
  1  3  1  0
 20 21  2  0
 10 11  1  0
 20 22  1  0
 11 12  1  0
 22 23  1  0
  2  6  1  0
 23 24  1  0
  1  2  1  0
 23 25  2  0
M  END
> <Name>
Untitled_281

> <OBJECTID>
9223372285966155787

> <From>
www.bindingDB.org

> <BindingDB Reactant_set_id>
50935633

> <Ligand InChI>
InChI=1S/C17H27N3O5/c1-12(22)18-16(23)15-7-4-8-20(15)17(24)14(10-19(25)11-21)9-13-5-2-3-6-13/h11,13-15,25H,2-10H2,1H3,(H,18,22,23)/t14-,15+/m1/s1

> <Ligand InChI Key>
LTILUBGSFJKXSM-CABCVRRESA-N

> <BindingDB MonomerID>
50383974

> <BindingDB Ligand Name>
CHEMBL2032110

> <Target Name>
Peptide deformylase

> <Target Source Organism According to Curator or DataSource>
Streptococcus pneumoniae serotype 4 (strain ATCC BAA-334 / TIGR4)

> <Ki (nM)>
nan

> <IC50 (nM)>
4

> <Kd (nM)>
nan

> <EC50 (nM)>
nan

> <kon (M-1-s-1)>
nan

> <koff (s-1)>
nan

> <pH>
nan

> <Temp C>
nan

> <Curation/DataSource>
ChEMBL

> <Article DOI>
10.1016/j.bmcl.2012.04.086

> <BindingDB Entry DOI>
10.7270/Q2K64K3V

> <PMID>
22579486

> <PubChem AID>
<NA>

> <Patent Number>
nan

> <Authors>
Axten, JM; Medina, JR; Blackledge, CW; Duquenne, C; Grant, SW; Bobko, MA; Peng, T; Miller, WH; Pinckney, T; Gallagher, TF; Kulkarni, S; Lewandowski, T; Van Aller, GS; Zonis, R; Ward, P; Campobasso, N

> <Date of publication>
5/29/2012

> <Date in BindingDB>
2/7/2013

> <Institution>
GlaxoSmithKline

> <Link to Ligand in BindingDB>
http://www.bindingdb.org/bind/chemsearch/marvin/MolStructure.jsp?monomerid=50383974

> <Link to Ligand-Target Pair in BindingDB>
http://www.bindingdb.org/jsp/dbsearch/PrimarySearch_ki.jsp?energyterm=kJ/mole&tag=r21&monomerid=50383974&enzyme=Peptide+deformylase&column=ki&startPg=0&Increment=50&submit=Search

> <Ligand HET ID in PDB>
<NA>

> <PDB ID(s) for Ligand-Target Complex>
<NA>

> <PubChem CID of Ligand>
16035824

> <PubChem SID of Ligand>
160863057

> <ChEBI ID of Ligand>
nan

> <ChEMBL ID of Ligand>
CHEMBL2032110

> <DrugBank ID of Ligand>
<NA>

> <IUPHAR_GRAC ID of Ligand>
nan

> <KEGG ID of Ligand>
<NA>

> <ZINC ID of Ligand>
ZINC34873860

> <Number of Protein Chains in Target (bigger than 1 implies a multichain complex)>
1

> <BindingDB Target Chain Sequence>
MSAIERITKAAHLIDMNDIIREGNPTLRAIAEEVTFPLSDQEIILGEKMMQFLKHSQDPVMAEKMGLRGGVGLAAPQLDISKRIIAVLVPNIVEEGETPQEAYDLEAIMYNPKIVSHSVQDAALGEGEGCLSVDRNVPGYVVRHARVTVDYFDKDGEKHRIKLKGYNSIVVQHEIDHINGIMFYDRINEKDPFAVKDGLL
ILE

> <PDB ID(s) of Target Chain>
<NA>

> <UniProt (SwissProt) Recommended Name of Target Chain>
Peptide deformylase

> <UniProt (SwissProt) Entry Name of Target Chain>
DEF_STRPN

> <UniProt (SwissProt) Primary ID of Target Chain>
Q9F2F0

> <UniProt (SwissProt) Secondary ID(s) of Target Chain>
<NA>

> <UniProt (SwissProt) Alternative ID(s) of Target Chain>
nan

> <UniProt (TrEMBL) Submitted Name of Target Chain>
<NA>

> <UniProt (TrEMBL) Entry Name of Target Chain>
<NA>

> <UniProt (TrEMBL) Primary ID of Target Chain>
<NA>

> <UniProt (TrEMBL) Secondary ID(s) of Target Chain>
nan

> <UniProt (TrEMBL) Alternative ID(s) of Target Chain>
nan

> <pIC50>
-0.6021

> <Num_H_Donors_Lipinski>
2

> <Num_H_Acceptors_Lipinski>
8

> <Molecular_Weight>
353.41338

> <ALogP>
0.429

> <Num_RotatableBonds>
6

> <Molecular_PolarSurfaceArea>
107.02

> <Num_H_Acceptors>
5

> <Num_H_Donors>
2

> <Num_Rings>
2

> <Num_AromaticRings>
0

> <Molecular_FractionalPolarSurfaceArea>
0.305

> <Activity_Bin>
7

> <PLSTempModel>
-0.339706201284001

> <PLSTempModel_Residuals>
-0.262393798715999

$$$$
Untitled_465
  SciTegic11182514132D

 21 22  0  0  0  0            999 V2000
   -0.7958   -0.3542    0.0000 N   0  0
   -0.0833    0.0583    0.0000 C   0  0
   -0.0833    0.8875    0.0000 C   0  0
   -0.8000    1.3000    0.0000 S   0  0
   -1.5083    0.0583    0.0000 C   0  0
   -0.8000   -1.1792    0.0000 C   0  0
   -1.5125    0.8833    0.0000 C   0  0
    0.6292    1.3000    0.0000 C   0  0
   -0.0958   -1.6000    0.0000 C   0  0
    1.3417    0.8958    0.0000 C   0  0
    0.6375   -0.3542    0.0000 O   0  0
    0.6250   -1.1917    0.0000 O   0  0
    1.3500    0.0708    0.0000 O   0  0
    2.0542    1.3083    0.0000 N   0  0
   -0.1000   -2.4250    0.0000 N   0  0
    2.7750    0.8958    0.0000 O   0  0
   -2.2333   -0.3625    0.0000 C   0  0
   -2.2333    1.2958    0.0000 C   0  0
   -1.5208   -1.5875    0.0000 C   0  0
   -2.9458    0.0500    0.0000 C   0  0
   -2.9458    0.8750    0.0000 C   0  0
  2  1  1  0
  3  2  1  0
  4  7  1  0
  5  1  1  0
  6  1  1  0
  7  5  2  0
  8  3  1  0
  9  6  1  0
 10  8  1  0
 11  2  2  0
 12  9  2  0
 13 10  2  0
 14 10  1  0
 15  9  1  0
 16 14  1  0
 17  5  1  0
 18  7  1  0
 19  6  1  0
 20 17  2  0
 21 20  1  0
  4  3  1  0
 21 18  2  0
M  END
> <Name>
Untitled_465

> <OBJECTID>
9223372358980599819

> <From>
www.bindingDB.org

> <BindingDB Reactant_set_id>
50259722

> <Ligand InChI>
InChI=1S/C13H15N3O4S/c1-7(12(14)18)16-8-4-2-3-5-9(8)21-10(13(16)19)6-11(17)15-20/h2-5,7,10,20H,6H2,1H3,(H2,14,18)(H,15,17)

> <Ligand InChI Key>
YXBYJUJBZWKXTN-UHFFFAOYSA-N

> <BindingDB MonomerID>
50141366

> <BindingDB Ligand Name>
2-(2-Hydroxycarbamoylmethyl-3-oxo-2,3-dihydro-benzo[1,4]thiazin-4-yl)-propionamide::CHEMBL286238

> <Target Name>
Peptide deformylase

> <Target Source Organism According to Curator or DataSource>
Staphylococcus aureus (strain Mu50 / ATCC 700699)

> <Ki (nM)>
nan

> <IC50 (nM)>
44

> <Kd (nM)>
nan

> <EC50 (nM)>
nan

> <kon (M-1-s-1)>
nan

> <koff (s-1)>
nan

> <pH>
nan

> <Temp C>
nan

> <Curation/DataSource>
ChEMBL

> <Article DOI>
10.1016/j.bmcl.2004.01.014

> <BindingDB Entry DOI>
10.7270/Q2MS3S6G

> <PMID>
15006385

> <PubChem AID>
<NA>

> <Patent Number>
nan

> <Authors>
Molteni, V; He, X; Nabakka, J; Yang, K; Kreusch, A; Gordon, P; Bursulaya, B; Warner, I; Shin, T; Biorac, T; Ryder, NS; Goldberg, R; Doughty, J; He, Y

> <Date of publication>
3/9/2004

> <Date in BindingDB>
11/10/2009

> <Institution>
Genomics Institute of the Novartis Research Foundation

> <Link to Ligand in BindingDB>
http://www.bindingdb.org/bind/chemsearch/marvin/MolStructure.jsp?monomerid=50141366

> <Link to Ligand-Target Pair in BindingDB>
http://www.bindingdb.org/jsp/dbsearch/PrimarySearch_ki.jsp?energyterm=kJ/mole&tag=r21&monomerid=50141366&enzyme=Peptide+deformylase&column=ki&startPg=0&Increment=50&submit=Search

> <Ligand HET ID in PDB>
<NA>

> <PDB ID(s) for Ligand-Target Complex>
<NA>

> <PubChem CID of Ligand>
11162652

> <PubChem SID of Ligand>
104030825

> <ChEBI ID of Ligand>
nan

> <ChEMBL ID of Ligand>
CHEMBL286238

> <DrugBank ID of Ligand>
<NA>

> <IUPHAR_GRAC ID of Ligand>
nan

> <KEGG ID of Ligand>
<NA>

> <ZINC ID of Ligand>
ZINC29246923

> <Number of Protein Chains in Target (bigger than 1 implies a multichain complex)>
1

> <BindingDB Target Chain Sequence>
MLTMKDIIRDGHPTLRQKAAELELPLTKEEKETLIAMREFLVNSQDEEIAKRYGLRSGVGLAAPQINISKRMIAVLIPDDGSGKSYDYMLVNPKIVSHSVQEAYLPTGEGCLSVDDNVAGLVHRHNRITIKAKDIEGNDIQLRLKGYPAIVFQHEIDHLNGVMFYDHIDKNHPLQPHTDAVEV

> <PDB ID(s) of Target Chain>
1LM4,1LMH,1LQW,2AI9,6JFG,6JFO,6JFQ,6JFR,6JFS

> <UniProt (SwissProt) Recommended Name of Target Chain>
Peptide deformylase

> <UniProt (SwissProt) Entry Name of Target Chain>
DEF_STAAU

> <UniProt (SwissProt) Primary ID of Target Chain>
P68826

> <UniProt (SwissProt) Secondary ID(s) of Target Chain>
Q9F4L4

> <UniProt (SwissProt) Alternative ID(s) of Target Chain>
nan

> <UniProt (TrEMBL) Submitted Name of Target Chain>
<NA>

> <UniProt (TrEMBL) Entry Name of Target Chain>
<NA>

> <UniProt (TrEMBL) Primary ID of Target Chain>
<NA>

> <UniProt (TrEMBL) Secondary ID(s) of Target Chain>
nan

> <UniProt (TrEMBL) Alternative ID(s) of Target Chain>
nan

> <pIC50>
-1.6435

> <Num_H_Donors_Lipinski>
4

> <Num_H_Acceptors_Lipinski>
7

> <Molecular_Weight>
309.3409

> <ALogP>
-0.028

> <Num_RotatableBonds>
4

> <Molecular_PolarSurfaceArea>
138.03

> <Num_H_Acceptors>
5

> <Num_H_Donors>
3

> <Num_Rings>
2

> <Num_AromaticRings>
1

> <Molecular_FractionalPolarSurfaceArea>
0.473

> <Activity_Bin>
5

> <PLSTempModel>
-1.93487414086854

> <PLSTempModel_Residuals>
0.291374140868542

$$$$
Untitled_304
  SciTegic11182514132D

 32 34  0  0  0  0            999 V2000
   39.9376   -5.8979    0.0000 N   0  0
   40.6475   -5.4930    0.0000 C   0  0
   41.3530   -5.9053    0.0000 C   0  0  2  0  0  0
   40.6518   -4.6758    0.0000 O   0  0
   39.2298   -5.4787    0.0000 C   0  0  1  0  0  0
   38.5221   -5.8801    0.0000 C   0  0
   38.5136   -6.6976    0.0000 C   0  0
   39.2189   -7.1121    0.0000 C   0  0
   39.9328   -6.7091    0.0000 N   0  0
   41.3487   -6.7225    0.0000 C   0  0
   42.0629   -5.5005    0.0000 C   0  0
   42.7684   -5.9128    0.0000 N   0  0
   43.4783   -5.5079    0.0000 C   0  0
   43.4826   -4.6907    0.0000 O   0  0
   42.7641   -6.7300    0.0000 O   0  0
   40.7646   -7.2969    0.0000 C   0  0
   39.9559   -7.1666    0.0000 C   0  0
   39.5779   -7.8934    0.0000 C   0  0
   40.1524   -8.4775    0.0000 C   0  0
   40.8853   -8.1115    0.0000 C   0  0
   39.2375   -4.6616    0.0000 C   0  0
   39.9490   -4.2596    0.0000 O   0  0
   38.5336   -4.2463    0.0000 N   0  0
   38.5413   -3.4292    0.0000 C   0  0
   39.2525   -3.0319    0.0000 N   0  0
   39.2605   -2.2155    0.0000 C   0  0
   38.5562   -1.7995    0.0000 C   0  0
   37.8423   -2.2058    0.0000 N   0  0
   37.8378   -3.0209    0.0000 C   0  0
   39.9722   -1.8139    0.0000 N   0  0
   40.6759   -2.2295    0.0000 C   0  0
   39.9803   -0.9968    0.0000 C   0  0
  1  2  1  0
  2  3  1  0
  2  4  2  0
  1  5  1  0
  1  9  1  0
  5  6  1  0
  6  7  1  0
  7  8  1  0
  8  9  1  0
  3 10  1  1
  3 11  1  0
 11 12  1  0
 12 13  1  0
 13 14  2  0
 12 15  1  0
 10 16  1  0
 16 17  1  0
 17 18  1  0
 18 19  1  0
 19 20  1  0
 20 16  1  0
  5 21  1  1
 21 22  2  0
 21 23  1  0
 23 24  1  0
 24 25  2  0
 25 26  1  0
 26 27  2  0
 27 28  1  0
 28 29  2  0
 29 24  1  0
 26 30  1  0
 30 31  1  0
 30 32  1  0
M  END
> <Name>
Untitled_304

> <OBJECTID>
9223372303146024971

> <From>
www.bindingDB.org

> <BindingDB Reactant_set_id>
51323499

> <Ligand InChI>
InChI=1S/C21H33N7O4/c1-26(2)19-12-22-11-18(24-19)25-20(30)17-8-5-9-23-28(17)21(31)16(13-27(32)14-29)10-15-6-3-4-7-15/h11-12,14-17,23,32H,3-10,13H2,1-2H3,(H,24,25,30)/t16-,17+/m1/s1

> <Ligand InChI Key>
RQHWJSZECVLRTL-SJORKVTESA-N

> <BindingDB MonomerID>
50535511

> <BindingDB Ligand Name>
CHEMBL4447270

> <Target Name>
Peptide deformylase

> <Target Source Organism According to Curator or DataSource>
Staphylococcus aureus

> <Ki (nM)>
nan

> <IC50 (nM)>
5

> <Kd (nM)>
nan

> <EC50 (nM)>
nan

> <kon (M-1-s-1)>
nan

> <koff (s-1)>
nan

> <pH>
nan

> <Temp C>
nan

> <Curation/DataSource>
ChEMBL

> <Article DOI>
10.1016/j.bmcl.2019.05.028

> <BindingDB Entry DOI>
10.7270/Q2FF3WV7

> <PMID>
31160176

> <PubChem AID>
<NA>

> <Patent Number>
nan

> <Authors>
Spletstoser, JT; Dreabit, J; Knox, AN; Benowitz, A; Campobasso, N; Ward, P; Cui, G; Lewandowski, T; McCloskey, L; Aubart, KM

> <Date of publication>
8/15/2019

> <Date in BindingDB>
2/28/2021

> <Institution>
GlaxoSmithKline

> <Link to Ligand in BindingDB>
http://www.bindingdb.org/bind/chemsearch/marvin/MolStructure.jsp?monomerid=50535511

> <Link to Ligand-Target Pair in BindingDB>
http://www.bindingdb.org/jsp/dbsearch/PrimarySearch_ki.jsp?energyterm=kJ/mole&tag=r21&monomerid=50535511&enzyme=Peptide+deformylase&column=ki&startPg=0&Increment=50&submit=Search

> <Ligand HET ID in PDB>
<NA>

> <PDB ID(s) for Ligand-Target Complex>
<NA>

> <PubChem CID of Ligand>
155518934

> <PubChem SID of Ligand>
440744093

> <ChEBI ID of Ligand>
nan

> <ChEMBL ID of Ligand>
<NA>

> <DrugBank ID of Ligand>
<NA>

> <IUPHAR_GRAC ID of Ligand>
nan

> <KEGG ID of Ligand>
<NA>

> <ZINC ID of Ligand>
<NA>

> <Number of Protein Chains in Target (bigger than 1 implies a multichain complex)>
1

> <BindingDB Target Chain Sequence>
MLTMKDIIRD GHPTLRQKAA ELELPLTKEE KETLIAMREF LVNSQDEEIA
KRYGLRSGVG LAAPQINISK RMIAVLIPDD GSGKSYDYML VNPKIVSHSV
QEAYLPTGEG CLSVDDNVAG LVHRHNRITI KAKDIEGNDI QLRLKGYPAI
VFQHEIDHLN GVMFYDHIDK NHPLQPHTDA VEV

> <PDB ID(s) of Target Chain>
1LM4,1LMH,1LQW,2AI9,6JFG,6JFO,6JFQ,6JFR,6JFS

> <UniProt (SwissProt) Recommended Name of Target Chain>
Peptide deformylase

> <UniProt (SwissProt) Entry Name of Target Chain>
DEF_STAAM

> <UniProt (SwissProt) Primary ID of Target Chain>
P68825

> <UniProt (SwissProt) Secondary ID(s) of Target Chain>
Q9F4L4

> <UniProt (SwissProt) Alternative ID(s) of Target Chain>
nan

> <UniProt (TrEMBL) Submitted Name of Target Chain>
<NA>

> <UniProt (TrEMBL) Entry Name of Target Chain>
<NA>

> <UniProt (TrEMBL) Primary ID of Target Chain>
<NA>

> <UniProt (TrEMBL) Secondary ID(s) of Target Chain>
nan

> <UniProt (TrEMBL) Alternative ID(s) of Target Chain>
nan

> <pIC50>
-0.699

> <Num_H_Donors_Lipinski>
3

> <Num_H_Acceptors_Lipinski>
11

> <Molecular_Weight>
447.53122

> <ALogP>
0.669

> <Num_RotatableBonds>
8

> <Molecular_PolarSurfaceArea>
131

> <Num_H_Acceptors>
8

> <Num_H_Donors>
3

> <Num_Rings>
3

> <Num_AromaticRings>
1

> <Molecular_FractionalPolarSurfaceArea>
0.294

> <Activity_Bin>
7

> <PLSTempModel>
-1.05163706240759

> <PLSTempModel_Residuals>
0.352637062407587

$$$$
Untitled_50
  SciTegic11182514132D

 28 29  0  0  0  0            999 V2000
   18.1083  -22.3292    0.0000 C   0  0  2  0  0  0
   18.8228  -21.9167    0.0000 C   0  0
   17.3939  -21.9167    0.0000 C   0  0
   16.6794  -22.3292    0.0000 N   0  0
   17.3939  -21.0917    0.0000 O   0  0
   19.5373  -22.3292    0.0000 N   0  0
   20.2517  -21.9167    0.0000 C   0  0
   19.5373  -23.1542    0.0000 O   0  0
   20.2517  -21.0917    0.0000 O   0  0
   18.1090  -23.1541    0.0000 C   0  0
   17.4341  -23.6290    0.0000 C   0  0
   16.6514  -23.3617    0.0000 C   0  0
   16.1565  -24.0218    0.0000 C   0  0
   16.6314  -24.6965    0.0000 C   0  0
   17.4197  -24.4532    0.0000 C   0  0
   15.9218  -21.9919    0.0000 C   0  0  1  0  0  0
   15.3698  -22.6050    0.0000 C   0  0
   15.7823  -23.3195    0.0000 C   0  0
   16.5892  -23.1478    0.0000 C   0  0
   15.7503  -21.1849    0.0000 C   0  0
   16.3634  -20.6329    0.0000 O   0  0
   14.9657  -20.9299    0.0000 N   0  0
   14.7941  -20.1230    0.0000 C   0  0
   15.4072  -19.5709    0.0000 O   0  0
   14.0095  -19.8680    0.0000 N   0  0
   13.8380  -19.0611    0.0000 C   0  0
   13.0534  -18.8061    0.0000 C   0  0
   12.8818  -17.9992    0.0000 N   0  0
 13 14  1  0
 14 15  1  0
 15 11  1  0
 16  4  1  0
  6  8  1  0
  7  9  2  0
  3  5  2  0
 16 17  1  0
 17 18  1  0
 18 19  1  0
 19  4  1  0
  1 10  1  1
 16 20  1  1
  1  3  1  0
 20 21  2  0
 10 11  1  0
 20 22  1  0
 11 12  1  0
 22 23  1  0
  2  6  1  0
 23 24  2  0
  1  2  1  0
 23 25  1  0
  6  7  1  0
 25 26  1  0
  3  4  1  0
 26 27  1  0
 12 13  1  0
 27 28  1  0
M  END
> <Name>
Untitled_50

> <OBJECTID>
9223372092692627467

> <From>
www.bindingDB.org

> <BindingDB Reactant_set_id>
50935668

> <Ligand InChI>
InChI=1S/C18H31N5O5/c19-7-8-20-18(27)21-16(25)15-6-3-9-23(15)17(26)14(11-22(28)12-24)10-13-4-1-2-5-13/h12-15,28H,1-11,19H2,(H2,20,21,25,27)/t14-,15+/m1/s1

> <Ligand InChI Key>
AQHGRNKKKVCCCR-CABCVRRESA-N

> <BindingDB MonomerID>
50383972

> <BindingDB Ligand Name>
CHEMBL2032146

> <Target Name>
Peptide deformylase

> <Target Source Organism According to Curator or DataSource>
Streptococcus pneumoniae serotype 4 (strain ATCC BAA-334 / TIGR4)

> <Ki (nM)>
nan

> <IC50 (nM)>
0.38

> <Kd (nM)>
nan

> <EC50 (nM)>
nan

> <kon (M-1-s-1)>
nan

> <koff (s-1)>
nan

> <pH>
nan

> <Temp C>
nan

> <Curation/DataSource>
ChEMBL

> <Article DOI>
10.1016/j.bmcl.2012.04.086

> <BindingDB Entry DOI>
10.7270/Q2K64K3V

> <PMID>
22579486

> <PubChem AID>
<NA>

> <Patent Number>
nan

> <Authors>
Axten, JM; Medina, JR; Blackledge, CW; Duquenne, C; Grant, SW; Bobko, MA; Peng, T; Miller, WH; Pinckney, T; Gallagher, TF; Kulkarni, S; Lewandowski, T; Van Aller, GS; Zonis, R; Ward, P; Campobasso, N

> <Date of publication>
5/29/2012

> <Date in BindingDB>
2/7/2013

> <Institution>
GlaxoSmithKline

> <Link to Ligand in BindingDB>
http://www.bindingdb.org/bind/chemsearch/marvin/MolStructure.jsp?monomerid=50383972

> <Link to Ligand-Target Pair in BindingDB>
http://www.bindingdb.org/jsp/dbsearch/PrimarySearch_ki.jsp?energyterm=kJ/mole&tag=r21&monomerid=50383972&enzyme=Peptide+deformylase&column=ki&startPg=0&Increment=50&submit=Search

> <Ligand HET ID in PDB>
<NA>

> <PDB ID(s) for Ligand-Target Complex>
<NA>

> <PubChem CID of Ligand>
70692221

> <PubChem SID of Ligand>
160863055

> <ChEBI ID of Ligand>
nan

> <ChEMBL ID of Ligand>
CHEMBL2032146

> <DrugBank ID of Ligand>
<NA>

> <IUPHAR_GRAC ID of Ligand>
nan

> <KEGG ID of Ligand>
<NA>

> <ZINC ID of Ligand>
ZINC84654824

> <Number of Protein Chains in Target (bigger than 1 implies a multichain complex)>
1

> <BindingDB Target Chain Sequence>
MSAIERITKAAHLIDMNDIIREGNPTLRAIAEEVTFPLSDQEIILGEKMMQFLKHSQDPVMAEKMGLRGGVGLAAPQLDISKRIIAVLVPNIVEEGETPQEAYDLEAIMYNPKIVSHSVQDAALGEGEGCLSVDRNVPGYVVRHARVTVDYFDKDGEKHRIKLKGYNSIVVQHEIDHINGIMFYDRINEKDPFAVKDGLL
ILE

> <PDB ID(s) of Target Chain>
<NA>

> <UniProt (SwissProt) Recommended Name of Target Chain>
Peptide deformylase

> <UniProt (SwissProt) Entry Name of Target Chain>
DEF_STRPN

> <UniProt (SwissProt) Primary ID of Target Chain>
Q9F2F0

> <UniProt (SwissProt) Secondary ID(s) of Target Chain>
<NA>

> <UniProt (SwissProt) Alternative ID(s) of Target Chain>
nan

> <UniProt (TrEMBL) Submitted Name of Target Chain>
<NA>

> <UniProt (TrEMBL) Entry Name of Target Chain>
<NA>

> <UniProt (TrEMBL) Primary ID of Target Chain>
<NA>

> <UniProt (TrEMBL) Secondary ID(s) of Target Chain>
nan

> <UniProt (TrEMBL) Alternative ID(s) of Target Chain>
nan

> <pIC50>
0.4202

> <Num_H_Donors_Lipinski>
5

> <Num_H_Acceptors_Lipinski>
10

> <Molecular_Weight>
397.46924

> <ALogP>
-0.404

> <Num_RotatableBonds>
8

> <Molecular_PolarSurfaceArea>
145.07

> <Num_H_Acceptors>
6

> <Num_H_Donors>
4

> <Num_Rings>
2

> <Num_AromaticRings>
0

> <Molecular_FractionalPolarSurfaceArea>
0.364

> <Activity_Bin>
9

> <PLSTempModel>
-0.27945456712473

> <PLSTempModel_Residuals>
0.69965456712473

$$$$
Untitled_271
  SciTegic11182514132D

 29 30  0  0  0  0            999 V2000
    9.1458  -22.5125    0.0000 C   0  0  2  0  0  0
    9.8603  -22.1000    0.0000 C   0  0
    8.4314  -22.1000    0.0000 C   0  0
    7.7169  -22.5125    0.0000 N   0  0
    8.4314  -21.2750    0.0000 O   0  0
   10.5748  -22.5125    0.0000 N   0  0
   11.2892  -22.1000    0.0000 C   0  0
   10.5748  -23.3375    0.0000 O   0  0
   11.2892  -21.2750    0.0000 O   0  0
    9.1465  -23.3374    0.0000 C   0  0
    8.4716  -23.8124    0.0000 C   0  0
    7.6889  -23.5450    0.0000 C   0  0
    7.1940  -24.2051    0.0000 C   0  0
    7.6689  -24.8798    0.0000 C   0  0
    8.4572  -24.6365    0.0000 C   0  0
    6.9593  -22.1752    0.0000 C   0  0  1  0  0  0
    6.4073  -22.7883    0.0000 C   0  0
    6.8198  -23.5028    0.0000 C   0  0
    7.6267  -23.3312    0.0000 C   0  0
    6.7878  -21.3682    0.0000 C   0  0
    7.4009  -20.8162    0.0000 O   0  0
    6.0032  -21.1133    0.0000 N   0  0
    5.8316  -20.3063    0.0000 C   0  0
    6.4447  -19.7543    0.0000 O   0  0
    5.0470  -20.0514    0.0000 N   0  0
    4.8755  -19.2444    0.0000 C   0  0
    5.4886  -18.6924    0.0000 C   0  0
    5.3171  -17.8854    0.0000 C   0  0
    5.9302  -17.3334    0.0000 O   0  0
 14 15  1  0
 15 11  1  0
 16  4  1  0
  6  8  1  0
  7  9  2  0
  3  5  2  0
 16 17  1  0
 17 18  1  0
 18 19  1  0
 19  4  1  0
  1 10  1  1
 16 20  1  1
  1  3  1  0
 20 21  2  0
 10 11  1  0
 20 22  1  0
 11 12  1  0
 22 23  1  0
  2  6  1  0
 23 24  2  0
  1  2  1  0
 23 25  1  0
  6  7  1  0
 25 26  1  0
  3  4  1  0
 26 27  1  0
 12 13  1  0
 27 28  1  0
 13 14  1  0
 28 29  1  0
M  END
> <Name>
Untitled_271

> <OBJECTID>
9223372264491319307

> <From>
www.bindingDB.org

> <BindingDB Reactant_set_id>
50935629

> <Ligand InChI>
InChI=1S/C19H32N4O6/c24-10-4-8-20-19(28)21-17(26)16-7-3-9-23(16)18(27)15(12-22(29)13-25)11-14-5-1-2-6-14/h13-16,24,29H,1-12H2,(H2,20,21,26,28)/t15-,16+/m1/s1

> <Ligand InChI Key>
DXRHLHRSHBCEND-CVEARBPZSA-N

> <BindingDB MonomerID>
50383971

> <BindingDB Ligand Name>
CHEMBL2032145

> <Target Name>
Peptide deformylase

> <Target Source Organism According to Curator or DataSource>
Staphylococcus aureus

> <Ki (nM)>
nan

> <IC50 (nM)>
3.2

> <Kd (nM)>
nan

> <EC50 (nM)>
nan

> <kon (M-1-s-1)>
nan

> <koff (s-1)>
nan

> <pH>
nan

> <Temp C>
nan

> <Curation/DataSource>
ChEMBL

> <Article DOI>
10.1016/j.bmcl.2012.04.086

> <BindingDB Entry DOI>
10.7270/Q2K64K3V

> <PMID>
22579486

> <PubChem AID>
<NA>

> <Patent Number>
nan

> <Authors>
Axten, JM; Medina, JR; Blackledge, CW; Duquenne, C; Grant, SW; Bobko, MA; Peng, T; Miller, WH; Pinckney, T; Gallagher, TF; Kulkarni, S; Lewandowski, T; Van Aller, GS; Zonis, R; Ward, P; Campobasso, N

> <Date of publication>
5/29/2012

> <Date in BindingDB>
2/7/2013

> <Institution>
GlaxoSmithKline

> <Link to Ligand in BindingDB>
http://www.bindingdb.org/bind/chemsearch/marvin/MolStructure.jsp?monomerid=50383971

> <Link to Ligand-Target Pair in BindingDB>
http://www.bindingdb.org/jsp/dbsearch/PrimarySearch_ki.jsp?energyterm=kJ/mole&tag=r21&monomerid=50383971&enzyme=Peptide+deformylase&column=ki&startPg=0&Increment=50&submit=Search

> <Ligand HET ID in PDB>
<NA>

> <PDB ID(s) for Ligand-Target Complex>
<NA>

> <PubChem CID of Ligand>
16035295

> <PubChem SID of Ligand>
160863054

> <ChEBI ID of Ligand>
nan

> <ChEMBL ID of Ligand>
CHEMBL2032145

> <DrugBank ID of Ligand>
<NA>

> <IUPHAR_GRAC ID of Ligand>
nan

> <KEGG ID of Ligand>
<NA>

> <ZINC ID of Ligand>
ZINC34873311

> <Number of Protein Chains in Target (bigger than 1 implies a multichain complex)>
1

> <BindingDB Target Chain Sequence>
MLTMKDIIRD GHPTLRQKAA ELELPLTKEE KETLIAMREF LVNSQDEEIA
KRYGLRSGVG LAAPQINISK RMIAVLIPDD GSGKSYDYML VNPKIVSHSV
QEAYLPTGEG CLSVDDNVAG LVHRHNRITI KAKDIEGNDI QLRLKGYPAI
VFQHEIDHLN GVMFYDHIDK NHPLQPHTDA VEV

> <PDB ID(s) of Target Chain>
1LM4,1LMH,1LQW,2AI9,6JFG,6JFO,6JFQ,6JFR,6JFS

> <UniProt (SwissProt) Recommended Name of Target Chain>
Peptide deformylase

> <UniProt (SwissProt) Entry Name of Target Chain>
DEF_STAAM

> <UniProt (SwissProt) Primary ID of Target Chain>
P68825

> <UniProt (SwissProt) Secondary ID(s) of Target Chain>
Q9F4L4

> <UniProt (SwissProt) Alternative ID(s) of Target Chain>
nan

> <UniProt (TrEMBL) Submitted Name of Target Chain>
<NA>

> <UniProt (TrEMBL) Entry Name of Target Chain>
<NA>

> <UniProt (TrEMBL) Primary ID of Target Chain>
<NA>

> <UniProt (TrEMBL) Secondary ID(s) of Target Chain>
nan

> <UniProt (TrEMBL) Alternative ID(s) of Target Chain>
nan

> <pIC50>
-0.5051

> <Num_H_Donors_Lipinski>
4

> <Num_H_Acceptors_Lipinski>
10

> <Molecular_Weight>
412.48058

> <ALogP>
-0.052

> <Num_RotatableBonds>
9

> <Molecular_PolarSurfaceArea>
139.28

> <Num_H_Acceptors>
6

> <Num_H_Donors>
4

> <Num_Rings>
2

> <Num_AromaticRings>
0

> <Molecular_FractionalPolarSurfaceArea>
0.34

> <Activity_Bin>
7

> <PLSTempModel>
2.47511532064566e-002

> <PLSTempModel_Residuals>
-0.529851153206457

$$$$
Untitled_536
  SciTegic11182514132D

 17 18  0  0  0  0            999 V2000
    0.9935   -3.6608    0.0000 N   0  0
    1.7950   -3.4730    0.0000 C   0  0
    2.1539   -2.7300    0.0000 C   0  0
    1.7950   -1.9911    0.0000 C   0  0
    0.3506   -3.1474    0.0000 C   0  0
    0.9935   -1.8075    0.0000 C   0  0
    3.3979   -3.4312    0.0000 C   0  0
    0.3506   -2.3209    0.0000 C   0  0
    2.9804   -2.7216    0.0000 C   0  0
    2.3084   -4.1367    0.0000 O   0  0
    2.9846   -4.1492    0.0000 O   0  0
    4.2244   -3.4229    0.0000 N   0  0
    4.6376   -4.1367    0.0000 O   0  0
   -0.3632   -3.5607    0.0000 C   0  0
   -0.3632   -1.9077    0.0000 C   0  0
   -1.0853   -3.1474    0.0000 C   0  0
   -1.0853   -2.3209    0.0000 C   0  0
  2  1  1  0
  3  2  1  0
  4  3  1  0
  5  1  1  0
  6  8  1  0
  7  9  1  0
  8  5  2  0
  9  3  1  0
 10  2  2  0
 11  7  2  0
 12  7  1  0
 13 12  1  0
 14  5  1  0
 15  8  1  0
 16 14  2  0
 17 16  1  0
  4  6  2  0
 17 15  2  0
M  END
> <Name>
Untitled_536

> <OBJECTID>
9223372406225240075

> <From>
www.bindingDB.org

> <BindingDB Reactant_set_id>
50259720

> <Ligand InChI>
InChI=1S/C12H12N2O3/c15-11(14-17)7-9-6-5-8-3-1-2-4-10(8)13-12(9)16/h1-6,9,17H,7H2,(H,13,16)(H,14,15)

> <Ligand InChI Key>
YOIMZLWGIMYVAP-UHFFFAOYSA-N

> <BindingDB MonomerID>
50141364

> <BindingDB Ligand Name>
CHEMBL284794::N-hydroxy-2-(2-oxo-2,3-dihydro-1H-1-benzazepin-3-yl)acetamide

> <Target Name>
Peptide deformylase

> <Target Source Organism According to Curator or DataSource>
Staphylococcus aureus (strain Mu50 / ATCC 700699)

> <Ki (nM)>
nan

> <IC50 (nM)>
169

> <Kd (nM)>
nan

> <EC50 (nM)>
nan

> <kon (M-1-s-1)>
nan

> <koff (s-1)>
nan

> <pH>
nan

> <Temp C>
nan

> <Curation/DataSource>
ChEMBL

> <Article DOI>
10.1016/j.bmcl.2004.01.014

> <BindingDB Entry DOI>
10.7270/Q2MS3S6G

> <PMID>
15006385

> <PubChem AID>
<NA>

> <Patent Number>
nan

> <Authors>
Molteni, V; He, X; Nabakka, J; Yang, K; Kreusch, A; Gordon, P; Bursulaya, B; Warner, I; Shin, T; Biorac, T; Ryder, NS; Goldberg, R; Doughty, J; He, Y

> <Date of publication>
3/9/2004

> <Date in BindingDB>
11/10/2009

> <Institution>
Genomics Institute of the Novartis Research Foundation

> <Link to Ligand in BindingDB>
http://www.bindingdb.org/bind/chemsearch/marvin/MolStructure.jsp?monomerid=50141364

> <Link to Ligand-Target Pair in BindingDB>
http://www.bindingdb.org/jsp/dbsearch/PrimarySearch_ki.jsp?energyterm=kJ/mole&tag=r21&monomerid=50141364&enzyme=Peptide+deformylase&column=ki&startPg=0&Increment=50&submit=Search

> <Ligand HET ID in PDB>
<NA>

> <PDB ID(s) for Ligand-Target Complex>
<NA>

> <PubChem CID of Ligand>
44283088

> <PubChem SID of Ligand>
104030823

> <ChEBI ID of Ligand>
nan

> <ChEMBL ID of Ligand>
CHEMBL284794

> <DrugBank ID of Ligand>
<NA>

> <IUPHAR_GRAC ID of Ligand>
nan

> <KEGG ID of Ligand>
<NA>

> <ZINC ID of Ligand>
ZINC29238763

> <Number of Protein Chains in Target (bigger than 1 implies a multichain complex)>
1

> <BindingDB Target Chain Sequence>
MLTMKDIIRDGHPTLRQKAAELELPLTKEEKETLIAMREFLVNSQDEEIAKRYGLRSGVGLAAPQINISKRMIAVLIPDDGSGKSYDYMLVNPKIVSHSVQEAYLPTGEGCLSVDDNVAGLVHRHNRITIKAKDIEGNDIQLRLKGYPAIVFQHEIDHLNGVMFYDHIDKNHPLQPHTDAVEV

> <PDB ID(s) of Target Chain>
1LM4,1LMH,1LQW,2AI9,6JFG,6JFO,6JFQ,6JFR,6JFS

> <UniProt (SwissProt) Recommended Name of Target Chain>
Peptide deformylase

> <UniProt (SwissProt) Entry Name of Target Chain>
DEF_STAAU

> <UniProt (SwissProt) Primary ID of Target Chain>
P68826

> <UniProt (SwissProt) Secondary ID(s) of Target Chain>
Q9F4L4

> <UniProt (SwissProt) Alternative ID(s) of Target Chain>
nan

> <UniProt (TrEMBL) Submitted Name of Target Chain>
<NA>

> <UniProt (TrEMBL) Entry Name of Target Chain>
<NA>

> <UniProt (TrEMBL) Primary ID of Target Chain>
<NA>

> <UniProt (TrEMBL) Secondary ID(s) of Target Chain>
nan

> <UniProt (TrEMBL) Alternative ID(s) of Target Chain>
nan

> <pIC50>
-2.2279

> <Num_H_Donors_Lipinski>
3

> <Num_H_Acceptors_Lipinski>
5

> <Molecular_Weight>
232.23528

> <ALogP>
0.313

> <Num_RotatableBonds>
2

> <Molecular_PolarSurfaceArea>
78.43

> <Num_H_Acceptors>
3

> <Num_H_Donors>
3

> <Num_Rings>
2

> <Num_AromaticRings>
1

> <Molecular_FractionalPolarSurfaceArea>
0.361

> <Activity_Bin>
4

> <PLSTempModel>
-1.8240530755962

> <PLSTempModel_Residuals>
-0.403846924403805

$$$$
Untitled_467
  SciTegic11182514132D

 27 29  0  0  0  0            999 V2000
    2.8625   -3.5667    0.0000 C   0  0
    5.7042   -6.0500    0.0000 C   0  0
    5.7042   -6.8750    0.0000 C   0  0
    6.4250   -5.6417    0.0000 C   0  0
    4.9917   -5.6375    0.0000 N   0  0
    6.4167   -7.2917    0.0000 C   0  0
    2.8542   -4.4000    0.0000 C   0  0
    6.4292   -4.8167    0.0000 O   0  0
    3.5625   -4.8042    0.0000 C   0  0
    7.1375   -6.0542    0.0000 N   0  0
    2.8625   -2.8167    0.0000 F   0  0
    2.1917   -3.0250    0.0000 F   0  0
    3.5292   -3.0292    0.0000 F   0  0
    6.4167   -8.1167    0.0000 C   0  0
    4.2792   -6.0417    0.0000 C   0  0
    3.5625   -5.6250    0.0000 C   0  0
    4.9875   -7.2875    0.0000 C   0  0
    7.8542   -5.6500    0.0000 O   0  0
    2.1417   -4.8042    0.0000 C   0  0
    7.1292   -6.8792    0.0000 C   0  0
    4.9875   -8.1125    0.0000 C   0  0
    2.1417   -5.6292    0.0000 C   0  0
    5.7042   -8.5292    0.0000 C   0  0
    2.8542   -6.0375    0.0000 C   0  0
    7.1292   -8.5292    0.0000 C   0  0
    7.8417   -7.2917    0.0000 C   0  0
    7.8417   -8.1167    0.0000 C   0  0
  2  5  1  0
  3  2  1  0
  4  2  1  0
  5 15  1  0
  6  3  1  0
  7  1  1  0
  8  4  2  0
  9  7  2  0
 10  4  1  0
 11  1  1  0
 12  1  1  0
 13  1  1  0
 14  6  2  0
 15 16  1  0
 16  9  1  0
 17  3  2  0
 18 10  1  0
 19  7  1  0
 20  6  1  0
 21 17  1  0
 22 19  2  0
 23 21  2  0
 24 22  1  0
 25 14  1  0
 26 20  2  0
 27 26  1  0
 24 16  2  0
 23 14  1  0
 25 27  2  0
M  END
> <Name>
Untitled_467

> <OBJECTID>
9223372363275567115

> <From>
www.bindingDB.org

> <BindingDB Reactant_set_id>
50179860

> <Ligand InChI>
InChI=1S/C20H17F3N2O2/c21-20(22,23)15-8-3-5-13(11-15)12-24-18(19(26)25-27)17-10-4-7-14-6-1-2-9-16(14)17/h1-11,18,24,27H,12H2,(H,25,26)

> <Ligand InChI Key>
LGQWBSDMPXGZDB-UHFFFAOYSA-N

> <BindingDB MonomerID>
50099848

> <BindingDB Ligand Name>
CHEMBL30051::N-Hydroxy-2-naphthalen-1-yl-2-(3-trifluoromethyl-benzylamino)-acetamide

> <Target Name>
Peptide deformylase

> <Target Source Organism According to Curator or DataSource>
Staphylococcus aureus (strain Mu50 / ATCC 700699)

> <Ki (nM)>
nan

> <IC50 (nM)>
46

> <Kd (nM)>
nan

> <EC50 (nM)>
nan

> <kon (M-1-s-1)>
nan

> <koff (s-1)>
nan

> <pH>
nan

> <Temp C>
nan

> <Curation/DataSource>
ChEMBL

> <Article DOI>
10.1016/s0960-894x(01)00242-6

> <BindingDB Entry DOI>
10.7270/Q2D50M7N

> <PMID>
11378353

> <PubChem AID>
<NA>

> <Patent Number>
nan

> <Authors>
Thorarensen, A; Deibel, MR; Rohrer, DC; Vosters, AF; Yem, AW; Marshall, VD; Lynn, JC; Bohanon, MJ; Tomich, PK; Zurenko, GE; Sweeney, MT; Jensen, RM; Nielsen, JW; Seest, EP; Dolak, LA

> <Date of publication>
5/29/2001

> <Date in BindingDB>
11/10/2009

> <Institution>
Pharmacia

> <Link to Ligand in BindingDB>
http://www.bindingdb.org/bind/chemsearch/marvin/MolStructure.jsp?monomerid=50099848

> <Link to Ligand-Target Pair in BindingDB>
http://www.bindingdb.org/jsp/dbsearch/PrimarySearch_ki.jsp?energyterm=kJ/mole&tag=r21&monomerid=50099848&enzyme=Peptide+deformylase&column=ki&startPg=0&Increment=50&submit=Search

> <Ligand HET ID in PDB>
<NA>

> <PDB ID(s) for Ligand-Target Complex>
<NA>

> <PubChem CID of Ligand>
44277128

> <PubChem SID of Ligand>
103996673

> <ChEBI ID of Ligand>
nan

> <ChEMBL ID of Ligand>
CHEMBL30051

> <DrugBank ID of Ligand>
<NA>

> <IUPHAR_GRAC ID of Ligand>
nan

> <KEGG ID of Ligand>
<NA>

> <ZINC ID of Ligand>
ZINC28766577

> <Number of Protein Chains in Target (bigger than 1 implies a multichain complex)>
1

> <BindingDB Target Chain Sequence>
MLTMKDIIRDGHPTLRQKAAELELPLTKEEKETLIAMREFLVNSQDEEIAKRYGLRSGVGLAAPQINISKRMIAVLIPDDGSGKSYDYMLVNPKIVSHSVQEAYLPTGEGCLSVDDNVAGLVHRHNRITIKAKDIEGNDIQLRLKGYPAIVFQHEIDHLNGVMFYDHIDKNHPLQPHTDAVEV

> <PDB ID(s) of Target Chain>
1LM4,1LMH,1LQW,2AI9,6JFG,6JFO,6JFQ,6JFR,6JFS

> <UniProt (SwissProt) Recommended Name of Target Chain>
Peptide deformylase

> <UniProt (SwissProt) Entry Name of Target Chain>
DEF_STAAU

> <UniProt (SwissProt) Primary ID of Target Chain>
P68826

> <UniProt (SwissProt) Secondary ID(s) of Target Chain>
Q9F4L4

> <UniProt (SwissProt) Alternative ID(s) of Target Chain>
nan

> <UniProt (TrEMBL) Submitted Name of Target Chain>
<NA>

> <UniProt (TrEMBL) Entry Name of Target Chain>
<NA>

> <UniProt (TrEMBL) Primary ID of Target Chain>
<NA>

> <UniProt (TrEMBL) Secondary ID(s) of Target Chain>
nan

> <UniProt (TrEMBL) Alternative ID(s) of Target Chain>
nan

> <pIC50>
-1.6628

> <Num_H_Donors_Lipinski>
3

> <Num_H_Acceptors_Lipinski>
4

> <Molecular_Weight>
374.35638

> <ALogP>
3.803

> <Num_RotatableBonds>
6

> <Molecular_PolarSurfaceArea>
61.36

> <Num_H_Acceptors>
3

> <Num_H_Donors>
3

> <Num_Rings>
3

> <Num_AromaticRings>
3

> <Molecular_FractionalPolarSurfaceArea>
0.185

> <Activity_Bin>
5

> <PLSTempModel>
-2.36958440202864

> <PLSTempModel_Residuals>
0.706784402028637

$$$$
Untitled_220
  SciTegic11182514132D

 27 29  0  0  0  0            999 V2000
    9.0083   -8.8708    0.0000 C   0  0  2  0  0  0
    9.7228   -8.4583    0.0000 C   0  0
    8.2939   -8.4583    0.0000 C   0  0
    7.5794   -8.8708    0.0000 N   0  0
    8.2939   -7.6333    0.0000 O   0  0
   10.4373   -8.8708    0.0000 N   0  0
   11.1517   -8.4583    0.0000 C   0  0
   10.4373   -9.6958    0.0000 O   0  0
   11.1517   -7.6333    0.0000 O   0  0
    9.0090   -9.6958    0.0000 C   0  0
    8.3341  -10.1707    0.0000 C   0  0
    7.5514   -9.9033    0.0000 C   0  0
    7.0565  -10.5634    0.0000 C   0  0
    7.5314  -11.2381    0.0000 C   0  0
    8.3197  -10.9948    0.0000 C   0  0
    6.8218   -8.5335    0.0000 C   0  0  1  0  0  0
    6.2698   -9.1466    0.0000 C   0  0
    6.6823   -9.8611    0.0000 C   0  0
    7.4892   -9.6895    0.0000 C   0  0
    6.6503   -7.7266    0.0000 C   0  0
    7.2634   -7.1745    0.0000 O   0  0
    5.8657   -7.4716    0.0000 N   0  0
    5.6941   -6.6646    0.0000 C   0  0
    4.9095   -6.4097    0.0000 C   0  0
    6.3072   -6.1126    0.0000 O   0  0
    4.3572   -5.7986    0.0000 C   0  0
    4.1023   -6.5832    0.0000 C   0  0
 12 13  1  0
 13 14  1  0
 14 15  1  0
 15 11  1  0
 16  4  1  0
  6  8  1  0
  7  9  2  0
  3  5  2  0
 16 17  1  0
 17 18  1  0
 18 19  1  0
 19  4  1  0
  1 10  1  1
 16 20  1  1
  1  3  1  0
 20 21  2  0
 10 11  1  0
 20 22  1  0
 11 12  1  0
 22 23  1  0
  2  6  1  0
 23 24  1  0
  1  2  1  0
 23 25  2  0
 26 24  1  0
 27 26  1  0
 24 27  1  0
  6  7  1  0
  3  4  1  0
M  END
> <Name>
Untitled_220

> <OBJECTID>
9223372200066809867

> <From>
www.bindingDB.org

> <BindingDB Reactant_set_id>
50935638

> <Ligand InChI>
InChI=1S/C19H29N3O5/c23-12-21(27)11-15(10-13-4-1-2-5-13)19(26)22-9-3-6-16(22)18(25)20-17(24)14-7-8-14/h12-16,27H,1-11H2,(H,20,24,25)/t15-,16+/m1/s1

> <Ligand InChI Key>
AZBHOSCBGQMGLI-CVEARBPZSA-N

> <BindingDB MonomerID>
50383979

> <BindingDB Ligand Name>
CHEMBL2032116

> <Target Name>
Peptide deformylase

> <Target Source Organism According to Curator or DataSource>
Streptococcus pneumoniae serotype 4 (strain ATCC BAA-334 / TIGR4)

> <Ki (nM)>
nan

> <IC50 (nM)>
1.2

> <Kd (nM)>
nan

> <EC50 (nM)>
nan

> <kon (M-1-s-1)>
nan

> <koff (s-1)>
nan

> <pH>
nan

> <Temp C>
nan

> <Curation/DataSource>
ChEMBL

> <Article DOI>
10.1016/j.bmcl.2012.04.086

> <BindingDB Entry DOI>
10.7270/Q2K64K3V

> <PMID>
22579486

> <PubChem AID>
<NA>

> <Patent Number>
nan

> <Authors>
Axten, JM; Medina, JR; Blackledge, CW; Duquenne, C; Grant, SW; Bobko, MA; Peng, T; Miller, WH; Pinckney, T; Gallagher, TF; Kulkarni, S; Lewandowski, T; Van Aller, GS; Zonis, R; Ward, P; Campobasso, N

> <Date of publication>
5/29/2012

> <Date in BindingDB>
2/7/2013

> <Institution>
GlaxoSmithKline

> <Link to Ligand in BindingDB>
http://www.bindingdb.org/bind/chemsearch/marvin/MolStructure.jsp?monomerid=50383979

> <Link to Ligand-Target Pair in BindingDB>
http://www.bindingdb.org/jsp/dbsearch/PrimarySearch_ki.jsp?energyterm=kJ/mole&tag=r21&monomerid=50383979&enzyme=Peptide+deformylase&column=ki&startPg=0&Increment=50&submit=Search

> <Ligand HET ID in PDB>
<NA>

> <PDB ID(s) for Ligand-Target Complex>
<NA>

> <PubChem CID of Ligand>
57878097

> <PubChem SID of Ligand>
160863062

> <ChEBI ID of Ligand>
nan

> <ChEMBL ID of Ligand>
CHEMBL2032116

> <DrugBank ID of Ligand>
<NA>

> <IUPHAR_GRAC ID of Ligand>
nan

> <KEGG ID of Ligand>
<NA>

> <ZINC ID of Ligand>
ZINC84758319

> <Number of Protein Chains in Target (bigger than 1 implies a multichain complex)>
1

> <BindingDB Target Chain Sequence>
MSAIERITKAAHLIDMNDIIREGNPTLRAIAEEVTFPLSDQEIILGEKMMQFLKHSQDPVMAEKMGLRGGVGLAAPQLDISKRIIAVLVPNIVEEGETPQEAYDLEAIMYNPKIVSHSVQDAALGEGEGCLSVDRNVPGYVVRHARVTVDYFDKDGEKHRIKLKGYNSIVVQHEIDHINGIMFYDRINEKDPFAVKDGLL
ILE

> <PDB ID(s) of Target Chain>
<NA>

> <UniProt (SwissProt) Recommended Name of Target Chain>
Peptide deformylase

> <UniProt (SwissProt) Entry Name of Target Chain>
DEF_STRPN

> <UniProt (SwissProt) Primary ID of Target Chain>
Q9F2F0

> <UniProt (SwissProt) Secondary ID(s) of Target Chain>
<NA>

> <UniProt (SwissProt) Alternative ID(s) of Target Chain>
nan

> <UniProt (TrEMBL) Submitted Name of Target Chain>
<NA>

> <UniProt (TrEMBL) Entry Name of Target Chain>
<NA>

> <UniProt (TrEMBL) Primary ID of Target Chain>
<NA>

> <UniProt (TrEMBL) Secondary ID(s) of Target Chain>
nan

> <UniProt (TrEMBL) Alternative ID(s) of Target Chain>
nan

> <pIC50>
-0.0792

> <Num_H_Donors_Lipinski>
2

> <Num_H_Acceptors_Lipinski>
8

> <Molecular_Weight>
379.45066

> <ALogP>
1.187

> <Num_RotatableBonds>
7

> <Molecular_PolarSurfaceArea>
107.02

> <Num_H_Acceptors>
5

> <Num_H_Donors>
2

> <Num_Rings>
3

> <Num_AromaticRings>
0

> <Molecular_FractionalPolarSurfaceArea>
0.294

> <Activity_Bin>
8

> <PLSTempModel>
-0.279898820841959

> <PLSTempModel_Residuals>
0.200698820841959

$$$$
Untitled_246
  SciTegic11182514132D

 28 29  0  0  0  0            999 V2000
   17.1125  -16.3167    0.0000 C   0  0  2  0  0  0
   17.8270  -15.9042    0.0000 C   0  0
   16.3980  -15.9042    0.0000 C   0  0
   15.6836  -16.3167    0.0000 N   0  0
   16.3980  -15.0792    0.0000 O   0  0
   18.5414  -16.3167    0.0000 N   0  0
   19.2559  -15.9042    0.0000 C   0  0
   18.5414  -17.1417    0.0000 O   0  0
   19.2559  -15.0792    0.0000 O   0  0
   17.1132  -17.1416    0.0000 C   0  0
   16.4382  -17.6165    0.0000 C   0  0
   15.6555  -17.3492    0.0000 C   0  0
   15.1607  -18.0093    0.0000 C   0  0
   15.6356  -18.6840    0.0000 C   0  0
   16.4239  -18.4407    0.0000 C   0  0
   14.9260  -15.9794    0.0000 C   0  0  1  0  0  0
   14.3739  -16.5925    0.0000 C   0  0
   14.7865  -17.3070    0.0000 C   0  0
   15.5934  -17.1353    0.0000 C   0  0
   14.7544  -15.1724    0.0000 C   0  0
   15.3675  -14.6204    0.0000 O   0  0
   13.9698  -14.9174    0.0000 N   0  0
   13.7983  -14.1105    0.0000 C   0  0
   14.4114  -13.5584    0.0000 O   0  0
   13.0137  -13.8555    0.0000 O   0  0
   12.8422  -13.0486    0.0000 C   0  0
   12.0575  -12.7936    0.0000 C   0  0
   13.4552  -12.4965    0.0000 C   0  0
 13 14  1  0
 14 15  1  0
 15 11  1  0
 16  4  1  0
  6  8  1  0
  7  9  2  0
  3  5  2  0
 16 17  1  0
 17 18  1  0
 18 19  1  0
 19  4  1  0
  1 10  1  1
 16 20  1  1
  1  3  1  0
 20 21  2  0
 10 11  1  0
 20 22  1  0
 11 12  1  0
 22 23  1  0
  2  6  1  0
 23 24  2  0
  1  2  1  0
 23 25  1  0
  6  7  1  0
 25 26  1  0
  3  4  1  0
 26 27  1  0
 12 13  1  0
 26 28  1  0
M  END
> <Name>
Untitled_246

> <OBJECTID>
9223372238721515531

> <From>
www.bindingDB.org

> <BindingDB Reactant_set_id>
50935625

> <Ligand InChI>
InChI=1S/C19H31N3O6/c1-13(2)28-19(26)20-17(24)16-8-5-9-22(16)18(25)15(11-21(27)12-23)10-14-6-3-4-7-14/h12-16,27H,3-11H2,1-2H3,(H,20,24,26)/t15-,16+/m1/s1

> <Ligand InChI Key>
WBXJELQQGCFNSL-CVEARBPZSA-N

> <BindingDB MonomerID>
50383967

> <BindingDB Ligand Name>
CHEMBL2032122

> <Target Name>
Peptide deformylase

> <Target Source Organism According to Curator or DataSource>
Staphylococcus aureus

> <Ki (nM)>
nan

> <IC50 (nM)>
2

> <Kd (nM)>
nan

> <EC50 (nM)>
nan

> <kon (M-1-s-1)>
nan

> <koff (s-1)>
nan

> <pH>
nan

> <Temp C>
nan

> <Curation/DataSource>
ChEMBL

> <Article DOI>
10.1016/j.bmcl.2012.04.086

> <BindingDB Entry DOI>
10.7270/Q2K64K3V

> <PMID>
22579486

> <PubChem AID>
<NA>

> <Patent Number>
nan

> <Authors>
Axten, JM; Medina, JR; Blackledge, CW; Duquenne, C; Grant, SW; Bobko, MA; Peng, T; Miller, WH; Pinckney, T; Gallagher, TF; Kulkarni, S; Lewandowski, T; Van Aller, GS; Zonis, R; Ward, P; Campobasso, N

> <Date of publication>
5/29/2012

> <Date in BindingDB>
2/7/2013

> <Institution>
GlaxoSmithKline

> <Link to Ligand in BindingDB>
http://www.bindingdb.org/bind/chemsearch/marvin/MolStructure.jsp?monomerid=50383967

> <Link to Ligand-Target Pair in BindingDB>
http://www.bindingdb.org/jsp/dbsearch/PrimarySearch_ki.jsp?energyterm=kJ/mole&tag=r21&monomerid=50383967&enzyme=Peptide+deformylase&column=ki&startPg=0&Increment=50&submit=Search

> <Ligand HET ID in PDB>
<NA>

> <PDB ID(s) for Ligand-Target Complex>
<NA>

> <PubChem CID of Ligand>
16036395

> <PubChem SID of Ligand>
160863050

> <ChEBI ID of Ligand>
nan

> <ChEMBL ID of Ligand>
CHEMBL2032122

> <DrugBank ID of Ligand>
<NA>

> <IUPHAR_GRAC ID of Ligand>
nan

> <KEGG ID of Ligand>
<NA>

> <ZINC ID of Ligand>
ZINC34874365

> <Number of Protein Chains in Target (bigger than 1 implies a multichain complex)>
1

> <BindingDB Target Chain Sequence>
MLTMKDIIRD GHPTLRQKAA ELELPLTKEE KETLIAMREF LVNSQDEEIA
KRYGLRSGVG LAAPQINISK RMIAVLIPDD GSGKSYDYML VNPKIVSHSV
QEAYLPTGEG CLSVDDNVAG LVHRHNRITI KAKDIEGNDI QLRLKGYPAI
VFQHEIDHLN GVMFYDHIDK NHPLQPHTDA VEV

> <PDB ID(s) of Target Chain>
1LM4,1LMH,1LQW,2AI9,6JFG,6JFO,6JFQ,6JFR,6JFS

> <UniProt (SwissProt) Recommended Name of Target Chain>
Peptide deformylase

> <UniProt (SwissProt) Entry Name of Target Chain>
DEF_STAAM

> <UniProt (SwissProt) Primary ID of Target Chain>
P68825

> <UniProt (SwissProt) Secondary ID(s) of Target Chain>
Q9F4L4

> <UniProt (SwissProt) Alternative ID(s) of Target Chain>
nan

> <UniProt (TrEMBL) Submitted Name of Target Chain>
<NA>

> <UniProt (TrEMBL) Entry Name of Target Chain>
<NA>

> <UniProt (TrEMBL) Primary ID of Target Chain>
<NA>

> <UniProt (TrEMBL) Secondary ID(s) of Target Chain>
nan

> <UniProt (TrEMBL) Alternative ID(s) of Target Chain>
nan

> <pIC50>
-0.301

> <Num_H_Donors_Lipinski>
2

> <Num_H_Acceptors_Lipinski>
9

> <Molecular_Weight>
397.46594

> <ALogP>
1.798

> <Num_RotatableBonds>
8

> <Molecular_PolarSurfaceArea>
116.25

> <Num_H_Acceptors>
6

> <Num_H_Donors>
2

> <Num_Rings>
2

> <Num_AromaticRings>
0

> <Molecular_FractionalPolarSurfaceArea>
0.293

> <Activity_Bin>
8

> <PLSTempModel>
-6.13837346877411e-003

> <PLSTempModel_Residuals>
-0.294861626531226

$$$$
Untitled_214
  SciTegic11182514132D

 27 28  0  0  0  0            999 V2000
    9.4125   -0.9458    0.0000 C   0  0  2  0  0  0
   10.1270   -0.5333    0.0000 C   0  0
    8.6980   -0.5333    0.0000 C   0  0
    7.9836   -0.9458    0.0000 N   0  0
    8.6980    0.2917    0.0000 O   0  0
   10.8414   -0.9458    0.0000 N   0  0
   11.5559   -0.5333    0.0000 C   0  0
   10.8414   -1.7708    0.0000 O   0  0
   11.5559    0.2917    0.0000 O   0  0
    9.4132   -1.7708    0.0000 C   0  0
    8.7382   -2.2457    0.0000 C   0  0
    7.9555   -1.9783    0.0000 C   0  0
    7.4607   -2.6384    0.0000 C   0  0
    7.9356   -3.3131    0.0000 C   0  0
    8.7239   -3.0698    0.0000 C   0  0
    7.2260   -0.6085    0.0000 C   0  0  1  0  0  0
    6.6739   -1.2216    0.0000 C   0  0
    7.0865   -1.9361    0.0000 C   0  0
    7.8934   -1.7645    0.0000 C   0  0
    7.0544    0.1984    0.0000 C   0  0
    7.6675    0.7505    0.0000 O   0  0
    6.2698    0.4534    0.0000 N   0  0
    6.0983    1.2604    0.0000 C   0  0
    5.3137    1.5153    0.0000 C   0  0
    6.7114    1.8124    0.0000 O   0  0
    5.1422    2.3223    0.0000 O   0  0
    4.3575    2.5772    0.0000 C   0  0
 12 13  1  0
 13 14  1  0
 14 15  1  0
 15 11  1  0
 16  4  1  0
  6  8  1  0
  7  9  2  0
  3  5  2  0
 16 17  1  0
 17 18  1  0
 18 19  1  0
 19  4  1  0
  1 10  1  1
 16 20  1  1
  1  3  1  0
 20 21  2  0
 10 11  1  0
 20 22  1  0
 11 12  1  0
 22 23  1  0
  2  6  1  0
 23 24  1  0
  1  2  1  0
 23 25  2  0
  6  7  1  0
 24 26  1  0
  3  4  1  0
 26 27  1  0
M  END
> <Name>
Untitled_214

> <OBJECTID>
9223372191476875275

> <From>
www.bindingDB.org

> <BindingDB Reactant_set_id>
50935622

> <Ligand InChI>
InChI=1S/C18H29N3O6/c1-27-11-16(23)19-17(24)15-7-4-8-21(15)18(25)14(10-20(26)12-22)9-13-5-2-3-6-13/h12-15,26H,2-11H2,1H3,(H,19,23,24)/t14-,15+/m1/s1

> <Ligand InChI Key>
QLWGBXKLJUYQJV-CABCVRRESA-N

> <BindingDB MonomerID>
50383964

> <BindingDB Ligand Name>
CHEMBL2032111

> <Target Name>
Peptide deformylase

> <Target Source Organism According to Curator or DataSource>
Streptococcus pneumoniae serotype 4 (strain ATCC BAA-334 / TIGR4)

> <Ki (nM)>
nan

> <IC50 (nM)>
1

> <Kd (nM)>
nan

> <EC50 (nM)>
nan

> <kon (M-1-s-1)>
nan

> <koff (s-1)>
nan

> <pH>
nan

> <Temp C>
nan

> <Curation/DataSource>
ChEMBL

> <Article DOI>
10.1016/j.bmcl.2012.04.086

> <BindingDB Entry DOI>
10.7270/Q2K64K3V

> <PMID>
22579486

> <PubChem AID>
<NA>

> <Patent Number>
nan

> <Authors>
Axten, JM; Medina, JR; Blackledge, CW; Duquenne, C; Grant, SW; Bobko, MA; Peng, T; Miller, WH; Pinckney, T; Gallagher, TF; Kulkarni, S; Lewandowski, T; Van Aller, GS; Zonis, R; Ward, P; Campobasso, N

> <Date of publication>
5/29/2012

> <Date in BindingDB>
2/7/2013

> <Institution>
GlaxoSmithKline

> <Link to Ligand in BindingDB>
http://www.bindingdb.org/bind/chemsearch/marvin/MolStructure.jsp?monomerid=50383964

> <Link to Ligand-Target Pair in BindingDB>
http://www.bindingdb.org/jsp/dbsearch/PrimarySearch_ki.jsp?energyterm=kJ/mole&tag=r21&monomerid=50383964&enzyme=Peptide+deformylase&column=ki&startPg=0&Increment=50&submit=Search

> <Ligand HET ID in PDB>
<NA>

> <PDB ID(s) for Ligand-Target Complex>
<NA>

> <PubChem CID of Ligand>
16035827

> <PubChem SID of Ligand>
160863047

> <ChEBI ID of Ligand>
nan

> <ChEMBL ID of Ligand>
CHEMBL2032111

> <DrugBank ID of Ligand>
<NA>

> <IUPHAR_GRAC ID of Ligand>
nan

> <KEGG ID of Ligand>
<NA>

> <ZINC ID of Ligand>
ZINC34873863

> <Number of Protein Chains in Target (bigger than 1 implies a multichain complex)>
1

> <BindingDB Target Chain Sequence>
MSAIERITKAAHLIDMNDIIREGNPTLRAIAEEVTFPLSDQEIILGEKMMQFLKHSQDPVMAEKMGLRGGVGLAAPQLDISKRIIAVLVPNIVEEGETPQEAYDLEAIMYNPKIVSHSVQDAALGEGEGCLSVDRNVPGYVVRHARVTVDYFDKDGEKHRIKLKGYNSIVVQHEIDHINGIMFYDRINEKDPFAVKDGLL
ILE

> <PDB ID(s) of Target Chain>
<NA>

> <UniProt (SwissProt) Recommended Name of Target Chain>
Peptide deformylase

> <UniProt (SwissProt) Entry Name of Target Chain>
DEF_STRPN

> <UniProt (SwissProt) Primary ID of Target Chain>
Q9F2F0

> <UniProt (SwissProt) Secondary ID(s) of Target Chain>
<NA>

> <UniProt (SwissProt) Alternative ID(s) of Target Chain>
nan

> <UniProt (TrEMBL) Submitted Name of Target Chain>
<NA>

> <UniProt (TrEMBL) Entry Name of Target Chain>
<NA>

> <UniProt (TrEMBL) Primary ID of Target Chain>
<NA>

> <UniProt (TrEMBL) Secondary ID(s) of Target Chain>
nan

> <UniProt (TrEMBL) Alternative ID(s) of Target Chain>
nan

> <pIC50>
0

> <Num_H_Donors_Lipinski>
2

> <Num_H_Acceptors_Lipinski>
9

> <Molecular_Weight>
383.43936

> <ALogP>
0.165

> <Num_RotatableBonds>
8

> <Molecular_PolarSurfaceArea>
116.25

> <Num_H_Acceptors>
6

> <Num_H_Donors>
2

> <Num_Rings>
2

> <Num_AromaticRings>
0

> <Molecular_FractionalPolarSurfaceArea>
0.304

> <Activity_Bin>
8

> <PLSTempModel>
-0.251125546575732

> <PLSTempModel_Residuals>
0.251125546575732

$$$$
Untitled_416
  SciTegic11182514132D

 32 34  0  0  0  0            999 V2000
   17.0067   -5.9391    0.0000 N   0  0
   17.7166   -5.5343    0.0000 C   0  0
   18.4221   -5.9466    0.0000 C   0  0  2  0  0  0
   17.7209   -4.7171    0.0000 O   0  0
   16.2989   -5.5200    0.0000 C   0  0  1  0  0  0
   15.5912   -5.9214    0.0000 C   0  0
   15.5827   -6.7389    0.0000 C   0  0
   16.2881   -7.1534    0.0000 C   0  0
   17.0020   -6.7504    0.0000 N   0  0
   18.4178   -6.7638    0.0000 C   0  0
   19.1320   -5.5417    0.0000 C   0  0
   19.8375   -5.9541    0.0000 N   0  0
   20.5474   -5.5492    0.0000 C   0  0
   20.5517   -4.7320    0.0000 O   0  0
   19.8332   -6.7712    0.0000 O   0  0
   17.8338   -7.3382    0.0000 C   0  0
   17.0250   -7.2078    0.0000 C   0  0
   16.6470   -7.9346    0.0000 C   0  0
   17.2215   -8.5187    0.0000 C   0  0
   17.9544   -8.1528    0.0000 C   0  0
   16.3066   -4.7028    0.0000 C   0  0
   17.0181   -4.3009    0.0000 O   0  0
   15.6027   -4.2876    0.0000 N   0  0
   15.6104   -3.4705    0.0000 C   0  0
   16.3217   -3.0732    0.0000 N   0  0
   16.3296   -2.2568    0.0000 C   0  0
   15.6253   -1.8408    0.0000 C   0  0
   14.9114   -2.2471    0.0000 C   0  0
   14.9069   -3.0622    0.0000 C   0  0
   17.0413   -1.8552    0.0000 N   0  0
   17.7450   -2.2708    0.0000 C   0  0
   17.0494   -1.0381    0.0000 C   0  0
  1  2  1  0
  2  3  1  0
  2  4  2  0
  1  5  1  0
  1  9  1  0
  5  6  1  0
  6  7  1  0
  7  8  1  0
  8  9  1  0
  3 10  1  1
  3 11  1  0
 11 12  1  0
 12 13  1  0
 13 14  2  0
 12 15  1  0
 10 16  1  0
 16 17  1  0
 17 18  1  0
 18 19  1  0
 19 20  1  0
 20 16  1  0
  5 21  1  1
 21 22  2  0
 21 23  1  0
 23 24  1  0
 24 25  2  0
 25 26  1  0
 26 27  2  0
 27 28  1  0
 28 29  2  0
 29 24  1  0
 26 30  1  0
 30 31  1  0
 30 32  1  0
M  END
> <Name>
Untitled_416

> <OBJECTID>
9223372341800730635

> <From>
www.bindingDB.org

> <BindingDB Reactant_set_id>
51323495

> <Ligand InChI>
InChI=1S/C22H34N6O4/c1-26(2)20-11-5-10-19(24-20)25-21(30)18-9-6-12-23-28(18)22(31)17(14-27(32)15-29)13-16-7-3-4-8-16/h5,10-11,15-18,23,32H,3-4,6-9,12-14H2,1-2H3,(H,24,25,30)/t17-,18+/m1/s1

> <Ligand InChI Key>
ITXPYFKTTDNLPN-MSOLQXFVSA-N

> <BindingDB MonomerID>
50535507

> <BindingDB Ligand Name>
CHEMBL4547624

> <Target Name>
Peptide deformylase

> <Target Source Organism According to Curator or DataSource>
Staphylococcus aureus

> <Ki (nM)>
nan

> <IC50 (nM)>
20

> <Kd (nM)>
nan

> <EC50 (nM)>
nan

> <kon (M-1-s-1)>
nan

> <koff (s-1)>
nan

> <pH>
nan

> <Temp C>
nan

> <Curation/DataSource>
ChEMBL

> <Article DOI>
10.1016/j.bmcl.2019.05.028

> <BindingDB Entry DOI>
10.7270/Q2FF3WV7

> <PMID>
31160176

> <PubChem AID>
<NA>

> <Patent Number>
nan

> <Authors>
Spletstoser, JT; Dreabit, J; Knox, AN; Benowitz, A; Campobasso, N; Ward, P; Cui, G; Lewandowski, T; McCloskey, L; Aubart, KM

> <Date of publication>
8/15/2019

> <Date in BindingDB>
2/28/2021

> <Institution>
GlaxoSmithKline

> <Link to Ligand in BindingDB>
http://www.bindingdb.org/bind/chemsearch/marvin/MolStructure.jsp?monomerid=50535507

> <Link to Ligand-Target Pair in BindingDB>
http://www.bindingdb.org/jsp/dbsearch/PrimarySearch_ki.jsp?energyterm=kJ/mole&tag=r21&monomerid=50535507&enzyme=Peptide+deformylase&column=ki&startPg=0&Increment=50&submit=Search

> <Ligand HET ID in PDB>
<NA>

> <PDB ID(s) for Ligand-Target Complex>
<NA>

> <PubChem CID of Ligand>
155553287

> <PubChem SID of Ligand>
440744089

> <ChEBI ID of Ligand>
nan

> <ChEMBL ID of Ligand>
<NA>

> <DrugBank ID of Ligand>
<NA>

> <IUPHAR_GRAC ID of Ligand>
nan

> <KEGG ID of Ligand>
<NA>

> <ZINC ID of Ligand>
<NA>

> <Number of Protein Chains in Target (bigger than 1 implies a multichain complex)>
1

> <BindingDB Target Chain Sequence>
MLTMKDIIRD GHPTLRQKAA ELELPLTKEE KETLIAMREF LVNSQDEEIA
KRYGLRSGVG LAAPQINISK RMIAVLIPDD GSGKSYDYML VNPKIVSHSV
QEAYLPTGEG CLSVDDNVAG LVHRHNRITI KAKDIEGNDI QLRLKGYPAI
VFQHEIDHLN GVMFYDHIDK NHPLQPHTDA VEV

> <PDB ID(s) of Target Chain>
1LM4,1LMH,1LQW,2AI9,6JFG,6JFO,6JFQ,6JFR,6JFS

> <UniProt (SwissProt) Recommended Name of Target Chain>
Peptide deformylase

> <UniProt (SwissProt) Entry Name of Target Chain>
DEF_STAAM

> <UniProt (SwissProt) Primary ID of Target Chain>
P68825

> <UniProt (SwissProt) Secondary ID(s) of Target Chain>
Q9F4L4

> <UniProt (SwissProt) Alternative ID(s) of Target Chain>
nan

> <UniProt (TrEMBL) Submitted Name of Target Chain>
<NA>

> <UniProt (TrEMBL) Entry Name of Target Chain>
<NA>

> <UniProt (TrEMBL) Primary ID of Target Chain>
<NA>

> <UniProt (TrEMBL) Secondary ID(s) of Target Chain>
nan

> <UniProt (TrEMBL) Alternative ID(s) of Target Chain>
nan

> <pIC50>
-1.301

> <Num_H_Donors_Lipinski>
3

> <Num_H_Acceptors_Lipinski>
10

> <Molecular_Weight>
446.54316

> <ALogP>
1.819

> <Num_RotatableBonds>
8

> <Molecular_PolarSurfaceArea>
118.11

> <Num_H_Acceptors>
7

> <Num_H_Donors>
3

> <Num_Rings>
3

> <Num_AromaticRings>
1

> <Molecular_FractionalPolarSurfaceArea>
0.266

> <Activity_Bin>
6

> <PLSTempModel>
-1.2137449306813

> <PLSTempModel_Residuals>
-8.72550693186953e-002

$$$$
Untitled_567
  SciTegic11182514132D

 24 25  0  0  0  0            999 V2000
    8.1682   -5.7636    0.0000 C   0  0
    3.8882   -5.7678    0.0000 C   0  0
    3.8799   -4.9426    0.0000 C   0  0
    3.1756   -6.1804    0.0000 C   0  0
    4.6051   -6.1762    0.0000 N   0  0
    7.4556   -6.1762    0.0000 C   0  0
    3.1756   -7.0138    0.0000 C   0  0
    3.1673   -4.5301    0.0000 O   0  0
    6.7430   -5.7678    0.0000 C   0  0
    4.5926   -4.5259    0.0000 N   0  0
    8.3058   -4.9134    0.0000 F   0  0
    8.8184   -5.3927    0.0000 F   0  0
    8.9767   -6.0678    0.0000 F   0  0
    5.3177   -5.7636    0.0000 C   0  0
    6.0303   -6.1762    0.0000 C   0  0
    3.8882   -7.4264    0.0000 F   0  0
    5.3135   -4.9384    0.0000 O   0  0
    2.4547   -5.7678    0.0000 C   0  0
    7.4556   -7.0055    0.0000 C   0  0
    6.7388   -7.4139    0.0000 C   0  0
    2.4547   -7.4264    0.0000 C   0  0
    6.0303   -6.9930    0.0000 C   0  0
    1.7420   -6.1887    0.0000 C   0  0
    1.7420   -7.0138    0.0000 C   0  0
  2  5  1  0
  3  2  1  0
  4  2  1  0
  5 14  1  0
  6  1  1  0
  7  4  2  0
  8  3  2  0
  9  6  2  0
 10  3  1  0
 11  1  1  0
 12  1  1  0
 13  1  1  0
 14 15  1  0
 15  9  1  0
 16  7  1  0
 17 10  1  0
 18  4  1  0
 19  6  1  0
 20 19  2  0
 21  7  1  0
 22 20  1  0
 23 18  2  0
 24 23  1  0
 22 15  2  0
 21 24  2  0
M  END
> <Name>
Untitled_567

> <OBJECTID>
9223372449174913035

> <From>
www.bindingDB.org

> <BindingDB Reactant_set_id>
50179862

> <Ligand InChI>
InChI=1S/C16H14F4N2O2/c17-13-7-2-1-6-12(13)14(15(23)22-24)21-9-10-4-3-5-11(8-10)16(18,19)20/h1-8,14,21,24H,9H2,(H,22,23)

> <Ligand InChI Key>
BANNGSDJUNVCOQ-UHFFFAOYSA-N

> <BindingDB MonomerID>
50099849

> <BindingDB Ligand Name>
2-(2-Fluoro-phenyl)-N-hydroxy-2-(3-trifluoromethyl-benzylamino)-acetamide::CHEMBL282858

> <Target Name>
Peptide deformylase

> <Target Source Organism According to Curator or DataSource>
Staphylococcus aureus (strain Mu50 / ATCC 700699)

> <Ki (nM)>
nan

> <IC50 (nM)>
460

> <Kd (nM)>
nan

> <EC50 (nM)>
nan

> <kon (M-1-s-1)>
nan

> <koff (s-1)>
nan

> <pH>
nan

> <Temp C>
nan

> <Curation/DataSource>
ChEMBL

> <Article DOI>
10.1016/s0960-894x(01)00242-6

> <BindingDB Entry DOI>
10.7270/Q2D50M7N

> <PMID>
11378353

> <PubChem AID>
<NA>

> <Patent Number>
nan

> <Authors>
Thorarensen, A; Deibel, MR; Rohrer, DC; Vosters, AF; Yem, AW; Marshall, VD; Lynn, JC; Bohanon, MJ; Tomich, PK; Zurenko, GE; Sweeney, MT; Jensen, RM; Nielsen, JW; Seest, EP; Dolak, LA

> <Date of publication>
5/29/2001

> <Date in BindingDB>
11/10/2009

> <Institution>
Pharmacia

> <Link to Ligand in BindingDB>
http://www.bindingdb.org/bind/chemsearch/marvin/MolStructure.jsp?monomerid=50099849

> <Link to Ligand-Target Pair in BindingDB>
http://www.bindingdb.org/jsp/dbsearch/PrimarySearch_ki.jsp?energyterm=kJ/mole&tag=r21&monomerid=50099849&enzyme=Peptide+deformylase&column=ki&startPg=0&Increment=50&submit=Search

> <Ligand HET ID in PDB>
<NA>

> <PDB ID(s) for Ligand-Target Complex>
<NA>

> <PubChem CID of Ligand>
44277053

> <PubChem SID of Ligand>
103996674

> <ChEBI ID of Ligand>
nan

> <ChEMBL ID of Ligand>
CHEMBL282858

> <DrugBank ID of Ligand>
<NA>

> <IUPHAR_GRAC ID of Ligand>
nan

> <KEGG ID of Ligand>
<NA>

> <ZINC ID of Ligand>
ZINC28765862

> <Number of Protein Chains in Target (bigger than 1 implies a multichain complex)>
1

> <BindingDB Target Chain Sequence>
MLTMKDIIRDGHPTLRQKAAELELPLTKEEKETLIAMREFLVNSQDEEIAKRYGLRSGVGLAAPQINISKRMIAVLIPDDGSGKSYDYMLVNPKIVSHSVQEAYLPTGEGCLSVDDNVAGLVHRHNRITIKAKDIEGNDIQLRLKGYPAIVFQHEIDHLNGVMFYDHIDKNHPLQPHTDAVEV

> <PDB ID(s) of Target Chain>
1LM4,1LMH,1LQW,2AI9,6JFG,6JFO,6JFQ,6JFR,6JFS

> <UniProt (SwissProt) Recommended Name of Target Chain>
Peptide deformylase

> <UniProt (SwissProt) Entry Name of Target Chain>
DEF_STAAU

> <UniProt (SwissProt) Primary ID of Target Chain>
P68826

> <UniProt (SwissProt) Secondary ID(s) of Target Chain>
Q9F4L4

> <UniProt (SwissProt) Alternative ID(s) of Target Chain>
nan

> <UniProt (TrEMBL) Submitted Name of Target Chain>
<NA>

> <UniProt (TrEMBL) Entry Name of Target Chain>
<NA>

> <UniProt (TrEMBL) Primary ID of Target Chain>
<NA>

> <UniProt (TrEMBL) Secondary ID(s) of Target Chain>
nan

> <UniProt (TrEMBL) Alternative ID(s) of Target Chain>
nan

> <pIC50>
-2.6628

> <Num_H_Donors_Lipinski>
3

> <Num_H_Acceptors_Lipinski>
4

> <Molecular_Weight>
342.28817

> <ALogP>
3.101

> <Num_RotatableBonds>
6

> <Molecular_PolarSurfaceArea>
61.36

> <Num_H_Acceptors>
3

> <Num_H_Donors>
3

> <Num_Rings>
2

> <Num_AromaticRings>
2

> <Molecular_FractionalPolarSurfaceArea>
0.205

> <Activity_Bin>
3

> <PLSTempModel>
-2.2335841901026

> <PLSTempModel_Residuals>
-0.429215809897397

$$$$
Untitled_192
  SciTegic11182514132D

 28 29  0  0  0  0            999 V2000
   17.1125  -16.3167    0.0000 C   0  0  2  0  0  0
   17.8270  -15.9042    0.0000 C   0  0
   16.3980  -15.9042    0.0000 C   0  0
   15.6836  -16.3167    0.0000 N   0  0
   16.3980  -15.0792    0.0000 O   0  0
   18.5414  -16.3167    0.0000 N   0  0
   19.2559  -15.9042    0.0000 C   0  0
   18.5414  -17.1417    0.0000 O   0  0
   19.2559  -15.0792    0.0000 O   0  0
   17.1132  -17.1416    0.0000 C   0  0
   16.4382  -17.6165    0.0000 C   0  0
   15.6555  -17.3492    0.0000 C   0  0
   15.1607  -18.0093    0.0000 C   0  0
   15.6356  -18.6840    0.0000 C   0  0
   16.4239  -18.4407    0.0000 C   0  0
   14.9260  -15.9794    0.0000 C   0  0  1  0  0  0
   14.3739  -16.5925    0.0000 C   0  0
   14.7865  -17.3070    0.0000 C   0  0
   15.5934  -17.1353    0.0000 C   0  0
   14.7544  -15.1724    0.0000 C   0  0
   15.3675  -14.6204    0.0000 O   0  0
   13.9698  -14.9174    0.0000 N   0  0
   13.7983  -14.1105    0.0000 C   0  0
   14.4114  -13.5584    0.0000 O   0  0
   13.0137  -13.8555    0.0000 O   0  0
   12.8422  -13.0486    0.0000 C   0  0
   12.0575  -12.7936    0.0000 C   0  0
   13.4552  -12.4965    0.0000 C   0  0
 13 14  1  0
 14 15  1  0
 15 11  1  0
 16  4  1  0
  6  8  1  0
  7  9  2  0
  3  5  2  0
 16 17  1  0
 17 18  1  0
 18 19  1  0
 19  4  1  0
  1 10  1  1
 16 20  1  1
  1  3  1  0
 20 21  2  0
 10 11  1  0
 20 22  1  0
 11 12  1  0
 22 23  1  0
  2  6  1  0
 23 24  2  0
  1  2  1  0
 23 25  1  0
  6  7  1  0
 25 26  1  0
  3  4  1  0
 26 27  1  0
 12 13  1  0
 26 28  1  0
M  END
> <Name>
Untitled_192

> <OBJECTID>
9223372127052365835

> <From>
www.bindingDB.org

> <BindingDB Reactant_set_id>
50935644

> <Ligand InChI>
InChI=1S/C19H31N3O6/c1-13(2)28-19(26)20-17(24)16-8-5-9-22(16)18(25)15(11-21(27)12-23)10-14-6-3-4-7-14/h12-16,27H,3-11H2,1-2H3,(H,20,24,26)/t15-,16+/m1/s1

> <Ligand InChI Key>
WBXJELQQGCFNSL-CVEARBPZSA-N

> <BindingDB MonomerID>
50383967

> <BindingDB Ligand Name>
CHEMBL2032122

> <Target Name>
Peptide deformylase

> <Target Source Organism According to Curator or DataSource>
Streptococcus pneumoniae serotype 4 (strain ATCC BAA-334 / TIGR4)

> <Ki (nM)>
nan

> <IC50 (nM)>
0.48

> <Kd (nM)>
nan

> <EC50 (nM)>
nan

> <kon (M-1-s-1)>
nan

> <koff (s-1)>
nan

> <pH>
nan

> <Temp C>
nan

> <Curation/DataSource>
ChEMBL

> <Article DOI>
10.1016/j.bmcl.2012.04.086

> <BindingDB Entry DOI>
10.7270/Q2K64K3V

> <PMID>
22579486

> <PubChem AID>
<NA>

> <Patent Number>
nan

> <Authors>
Axten, JM; Medina, JR; Blackledge, CW; Duquenne, C; Grant, SW; Bobko, MA; Peng, T; Miller, WH; Pinckney, T; Gallagher, TF; Kulkarni, S; Lewandowski, T; Van Aller, GS; Zonis, R; Ward, P; Campobasso, N

> <Date of publication>
5/29/2012

> <Date in BindingDB>
2/7/2013

> <Institution>
GlaxoSmithKline

> <Link to Ligand in BindingDB>
http://www.bindingdb.org/bind/chemsearch/marvin/MolStructure.jsp?monomerid=50383967

> <Link to Ligand-Target Pair in BindingDB>
http://www.bindingdb.org/jsp/dbsearch/PrimarySearch_ki.jsp?energyterm=kJ/mole&tag=r21&monomerid=50383967&enzyme=Peptide+deformylase&column=ki&startPg=0&Increment=50&submit=Search

> <Ligand HET ID in PDB>
<NA>

> <PDB ID(s) for Ligand-Target Complex>
<NA>

> <PubChem CID of Ligand>
16036395

> <PubChem SID of Ligand>
160863050

> <ChEBI ID of Ligand>
nan

> <ChEMBL ID of Ligand>
CHEMBL2032122

> <DrugBank ID of Ligand>
<NA>

> <IUPHAR_GRAC ID of Ligand>
nan

> <KEGG ID of Ligand>
<NA>

> <ZINC ID of Ligand>
ZINC34874365

> <Number of Protein Chains in Target (bigger than 1 implies a multichain complex)>
1

> <BindingDB Target Chain Sequence>
MSAIERITKAAHLIDMNDIIREGNPTLRAIAEEVTFPLSDQEIILGEKMMQFLKHSQDPVMAEKMGLRGGVGLAAPQLDISKRIIAVLVPNIVEEGETPQEAYDLEAIMYNPKIVSHSVQDAALGEGEGCLSVDRNVPGYVVRHARVTVDYFDKDGEKHRIKLKGYNSIVVQHEIDHINGIMFYDRINEKDPFAVKDGLL
ILE

> <PDB ID(s) of Target Chain>
<NA>

> <UniProt (SwissProt) Recommended Name of Target Chain>
Peptide deformylase

> <UniProt (SwissProt) Entry Name of Target Chain>
DEF_STRPN

> <UniProt (SwissProt) Primary ID of Target Chain>
Q9F2F0

> <UniProt (SwissProt) Secondary ID(s) of Target Chain>
<NA>

> <UniProt (SwissProt) Alternative ID(s) of Target Chain>
nan

> <UniProt (TrEMBL) Submitted Name of Target Chain>
<NA>

> <UniProt (TrEMBL) Entry Name of Target Chain>
<NA>

> <UniProt (TrEMBL) Primary ID of Target Chain>
<NA>

> <UniProt (TrEMBL) Secondary ID(s) of Target Chain>
nan

> <UniProt (TrEMBL) Alternative ID(s) of Target Chain>
nan

> <pIC50>
0.3188

> <Num_H_Donors_Lipinski>
2

> <Num_H_Acceptors_Lipinski>
9

> <Molecular_Weight>
397.46594

> <ALogP>
1.798

> <Num_RotatableBonds>
8

> <Molecular_PolarSurfaceArea>
116.25

> <Num_H_Acceptors>
6

> <Num_H_Donors>
2

> <Num_Rings>
2

> <Num_AromaticRings>
0

> <Molecular_FractionalPolarSurfaceArea>
0.293

> <Activity_Bin>
9

> <PLSTempModel>
-6.13837346877411e-003

> <PLSTempModel_Residuals>
0.324938373468774

$$$$
Untitled_189
  SciTegic11182514132D

 29 31  0  0  0  0            999 V2000
   18.0583   -8.4042    0.0000 C   0  0  2  0  0  0
   18.7728   -7.9917    0.0000 C   0  0
   17.3439   -7.9917    0.0000 C   0  0
   16.6294   -8.4042    0.0000 N   0  0
   17.3439   -7.1667    0.0000 O   0  0
   19.4873   -8.4042    0.0000 N   0  0
   20.2017   -7.9917    0.0000 C   0  0
   19.4873   -9.2292    0.0000 O   0  0
   20.2017   -7.1667    0.0000 O   0  0
   18.0590   -9.2291    0.0000 C   0  0
   17.3841   -9.7040    0.0000 C   0  0
   16.6014   -9.4367    0.0000 C   0  0
   16.1065  -10.0968    0.0000 C   0  0
   16.5814  -10.7715    0.0000 C   0  0
   17.3697  -10.5282    0.0000 C   0  0
   15.8718   -8.0669    0.0000 C   0  0  1  0  0  0
   15.3198   -8.6800    0.0000 C   0  0
   15.7323   -9.3945    0.0000 C   0  0
   16.5392   -9.2228    0.0000 C   0  0
   15.7003   -7.2599    0.0000 C   0  0
   16.3134   -6.7079    0.0000 O   0  0
   14.9157   -7.0049    0.0000 N   0  0
   14.7441   -6.1980    0.0000 C   0  0
   13.9595   -5.9430    0.0000 C   0  0
   15.3572   -5.6459    0.0000 O   0  0
   13.7036   -5.1602    0.0000 C   0  0
   12.8786   -5.1602    0.0000 C   0  0
   12.6236   -5.9448    0.0000 C   0  0
   13.2911   -6.4296    0.0000 C   0  0
 14 15  1  0
 15 11  1  0
 16  4  1  0
  6  8  1  0
  7  9  2  0
  3  5  2  0
 16 17  1  0
 17 18  1  0
 18 19  1  0
 19  4  1  0
  1 10  1  1
 16 20  1  1
  1  3  1  0
 20 21  2  0
 10 11  1  0
 20 22  1  0
 11 12  1  0
 22 23  1  0
  2  6  1  0
 23 24  1  0
  1  2  1  0
 23 25  2  0
 24 26  1  0
  6  7  1  0
  3  4  1  0
 12 13  1  0
 13 14  1  0
 26 27  1  0
 27 28  1  0
 28 29  1  0
 29 24  1  0
M  END
> <Name>
Untitled_189

> <OBJECTID>
9223372114167463947

> <From>
www.bindingDB.org

> <BindingDB Reactant_set_id>
50935639

> <Ligand InChI>
InChI=1S/C21H33N3O5/c25-14-23(29)13-17(12-15-6-1-2-7-15)21(28)24-11-5-10-18(24)20(27)22-19(26)16-8-3-4-9-16/h14-18,29H,1-13H2,(H,22,26,27)/t17-,18+/m1/s1

> <Ligand InChI Key>
XEKDFJCAHRHGGH-MSOLQXFVSA-N

> <BindingDB MonomerID>
50383980

> <BindingDB Ligand Name>
CHEMBL2032117

> <Target Name>
Peptide deformylase

> <Target Source Organism According to Curator or DataSource>
Streptococcus pneumoniae serotype 4 (strain ATCC BAA-334 / TIGR4)

> <Ki (nM)>
nan

> <IC50 (nM)>
0.43

> <Kd (nM)>
nan

> <EC50 (nM)>
nan

> <kon (M-1-s-1)>
nan

> <koff (s-1)>
nan

> <pH>
nan

> <Temp C>
nan

> <Curation/DataSource>
ChEMBL

> <Article DOI>
10.1016/j.bmcl.2012.04.086

> <BindingDB Entry DOI>
10.7270/Q2K64K3V

> <PMID>
22579486

> <PubChem AID>
<NA>

> <Patent Number>
nan

> <Authors>
Axten, JM; Medina, JR; Blackledge, CW; Duquenne, C; Grant, SW; Bobko, MA; Peng, T; Miller, WH; Pinckney, T; Gallagher, TF; Kulkarni, S; Lewandowski, T; Van Aller, GS; Zonis, R; Ward, P; Campobasso, N

> <Date of publication>
5/29/2012

> <Date in BindingDB>
2/7/2013

> <Institution>
GlaxoSmithKline

> <Link to Ligand in BindingDB>
http://www.bindingdb.org/bind/chemsearch/marvin/MolStructure.jsp?monomerid=50383980

> <Link to Ligand-Target Pair in BindingDB>
http://www.bindingdb.org/jsp/dbsearch/PrimarySearch_ki.jsp?energyterm=kJ/mole&tag=r21&monomerid=50383980&enzyme=Peptide+deformylase&column=ki&startPg=0&Increment=50&submit=Search

> <Ligand HET ID in PDB>
<NA>

> <PDB ID(s) for Ligand-Target Complex>
<NA>

> <PubChem CID of Ligand>
16034963

> <PubChem SID of Ligand>
160863063

> <ChEBI ID of Ligand>
nan

> <ChEMBL ID of Ligand>
CHEMBL2032117

> <DrugBank ID of Ligand>
<NA>

> <IUPHAR_GRAC ID of Ligand>
nan

> <KEGG ID of Ligand>
<NA>

> <ZINC ID of Ligand>
ZINC34872980

> <Number of Protein Chains in Target (bigger than 1 implies a multichain complex)>
1

> <BindingDB Target Chain Sequence>
MSAIERITKAAHLIDMNDIIREGNPTLRAIAEEVTFPLSDQEIILGEKMMQFLKHSQDPVMAEKMGLRGGVGLAAPQLDISKRIIAVLVPNIVEEGETPQEAYDLEAIMYNPKIVSHSVQDAALGEGEGCLSVDRNVPGYVVRHARVTVDYFDKDGEKHRIKLKGYNSIVVQHEIDHINGIMFYDRINEKDPFAVKDGLL
ILE

> <PDB ID(s) of Target Chain>
<NA>

> <UniProt (SwissProt) Recommended Name of Target Chain>
Peptide deformylase

> <UniProt (SwissProt) Entry Name of Target Chain>
DEF_STRPN

> <UniProt (SwissProt) Primary ID of Target Chain>
Q9F2F0

> <UniProt (SwissProt) Secondary ID(s) of Target Chain>
<NA>

> <UniProt (SwissProt) Alternative ID(s) of Target Chain>
nan

> <UniProt (TrEMBL) Submitted Name of Target Chain>
<NA>

> <UniProt (TrEMBL) Entry Name of Target Chain>
<NA>

> <UniProt (TrEMBL) Primary ID of Target Chain>
<NA>

> <UniProt (TrEMBL) Secondary ID(s) of Target Chain>
nan

> <UniProt (TrEMBL) Alternative ID(s) of Target Chain>
nan

> <pIC50>
0.3665

> <Num_H_Donors_Lipinski>
2

> <Num_H_Acceptors_Lipinski>
8

> <Molecular_Weight>
407.50382

> <ALogP>
2.099

> <Num_RotatableBonds>
7

> <Molecular_PolarSurfaceArea>
107.02

> <Num_H_Acceptors>
5

> <Num_H_Donors>
2

> <Num_Rings>
3

> <Num_AromaticRings>
0

> <Molecular_FractionalPolarSurfaceArea>
0.27

> <Activity_Bin>
9

> <PLSTempModel>
-0.170116023059881

> <PLSTempModel_Residuals>
0.536616023059881

$$$$
Untitled_377
  SciTegic11182514132D

 26 27  0  0  0  0            999 V2000
   29.7723  -12.6211    0.0000 N   0  0
   30.4821  -12.2163    0.0000 C   0  0
   31.1876  -12.6286    0.0000 C   0  0  2  0  0  0
   30.4864  -11.3991    0.0000 O   0  0
   29.0644  -12.2020    0.0000 C   0  0  1  0  0  0
   28.3567  -12.6034    0.0000 C   0  0
   28.3482  -13.4209    0.0000 C   0  0
   29.0536  -13.8353    0.0000 C   0  0
   29.7675  -13.4323    0.0000 N   0  0
   31.1833  -13.4458    0.0000 C   0  0
   31.8975  -12.2237    0.0000 C   0  0
   32.6030  -12.6360    0.0000 N   0  0
   33.3129  -12.2312    0.0000 C   0  0
   33.3172  -11.4140    0.0000 O   0  0
   32.5987  -13.4532    0.0000 O   0  0
   30.5993  -14.0202    0.0000 C   0  0
   29.7905  -13.8898    0.0000 C   0  0
   29.4126  -14.6166    0.0000 C   0  0
   29.9870  -15.2007    0.0000 C   0  0
   30.7199  -14.8348    0.0000 C   0  0
   29.0721  -11.3848    0.0000 C   0  0
   29.7836  -10.9829    0.0000 O   0  0
   28.3683  -10.9696    0.0000 N   0  0
   27.6567  -11.3715    0.0000 C   0  0
   26.9529  -10.9563    0.0000 C   0  0
   26.2414  -11.3583    0.0000 C   0  0
  1  2  1  0
  2  3  1  0
  2  4  2  0
  1  5  1  0
  1  9  1  0
  5  6  1  0
  6  7  1  0
  7  8  1  0
  8  9  1  0
  3 10  1  1
  3 11  1  0
 11 12  1  0
 12 13  1  0
 13 14  2  0
 12 15  1  0
 10 16  1  0
 16 17  1  0
 17 18  1  0
 18 19  1  0
 19 20  1  0
 20 16  1  0
  5 21  1  1
 21 22  2  0
 21 23  1  0
 23 24  1  0
 24 25  1  0
 25 26  1  0
M  END
> <Name>
Untitled_377

> <OBJECTID>
9223372324620861451

> <From>
www.bindingDB.org

> <BindingDB Reactant_set_id>
51323494

> <Ligand InChI>
InChI=1S/C18H32N4O4/c1-2-9-19-17(24)16-8-5-10-20-22(16)18(25)15(12-21(26)13-23)11-14-6-3-4-7-14/h13-16,20,26H,2-12H2,1H3,(H,19,24)/t15-,16+/m1/s1

> <Ligand InChI Key>
VZQSTKPEZQNLIN-CVEARBPZSA-N

> <BindingDB MonomerID>
50535506

> <BindingDB Ligand Name>
CHEMBL4440847

> <Target Name>
Peptide deformylase

> <Target Source Organism According to Curator or DataSource>
Staphylococcus aureus

> <Ki (nM)>
nan

> <IC50 (nM)>
11

> <Kd (nM)>
nan

> <EC50 (nM)>
nan

> <kon (M-1-s-1)>
nan

> <koff (s-1)>
nan

> <pH>
nan

> <Temp C>
nan

> <Curation/DataSource>
ChEMBL

> <Article DOI>
10.1016/j.bmcl.2019.05.028

> <BindingDB Entry DOI>
10.7270/Q2FF3WV7

> <PMID>
31160176

> <PubChem AID>
<NA>

> <Patent Number>
nan

> <Authors>
Spletstoser, JT; Dreabit, J; Knox, AN; Benowitz, A; Campobasso, N; Ward, P; Cui, G; Lewandowski, T; McCloskey, L; Aubart, KM

> <Date of publication>
8/15/2019

> <Date in BindingDB>
2/28/2021

> <Institution>
GlaxoSmithKline

> <Link to Ligand in BindingDB>
http://www.bindingdb.org/bind/chemsearch/marvin/MolStructure.jsp?monomerid=50535506

> <Link to Ligand-Target Pair in BindingDB>
http://www.bindingdb.org/jsp/dbsearch/PrimarySearch_ki.jsp?energyterm=kJ/mole&tag=r21&monomerid=50535506&enzyme=Peptide+deformylase&column=ki&startPg=0&Increment=50&submit=Search

> <Ligand HET ID in PDB>
<NA>

> <PDB ID(s) for Ligand-Target Complex>
<NA>

> <PubChem CID of Ligand>
155514815

> <PubChem SID of Ligand>
440744088

> <ChEBI ID of Ligand>
nan

> <ChEMBL ID of Ligand>
<NA>

> <DrugBank ID of Ligand>
<NA>

> <IUPHAR_GRAC ID of Ligand>
nan

> <KEGG ID of Ligand>
<NA>

> <ZINC ID of Ligand>
<NA>

> <Number of Protein Chains in Target (bigger than 1 implies a multichain complex)>
1

> <BindingDB Target Chain Sequence>
MLTMKDIIRD GHPTLRQKAA ELELPLTKEE KETLIAMREF LVNSQDEEIA
KRYGLRSGVG LAAPQINISK RMIAVLIPDD GSGKSYDYML VNPKIVSHSV
QEAYLPTGEG CLSVDDNVAG LVHRHNRITI KAKDIEGNDI QLRLKGYPAI
VFQHEIDHLN GVMFYDHIDK NHPLQPHTDA VEV

> <PDB ID(s) of Target Chain>
1LM4,1LMH,1LQW,2AI9,6JFG,6JFO,6JFQ,6JFR,6JFS

> <UniProt (SwissProt) Recommended Name of Target Chain>
Peptide deformylase

> <UniProt (SwissProt) Entry Name of Target Chain>
DEF_STAAM

> <UniProt (SwissProt) Primary ID of Target Chain>
P68825

> <UniProt (SwissProt) Secondary ID(s) of Target Chain>
Q9F4L4

> <UniProt (SwissProt) Alternative ID(s) of Target Chain>
nan

> <UniProt (TrEMBL) Submitted Name of Target Chain>
<NA>

> <UniProt (TrEMBL) Entry Name of Target Chain>
<NA>

> <UniProt (TrEMBL) Primary ID of Target Chain>
<NA>

> <UniProt (TrEMBL) Secondary ID(s) of Target Chain>
nan

> <UniProt (TrEMBL) Alternative ID(s) of Target Chain>
nan

> <pIC50>
-1.0414

> <Num_H_Donors_Lipinski>
3

> <Num_H_Acceptors_Lipinski>
8

> <Molecular_Weight>
368.47107

> <ALogP>
1.025

> <Num_RotatableBonds>
8

> <Molecular_PolarSurfaceArea>
101.98

> <Num_H_Acceptors>
5

> <Num_H_Donors>
3

> <Num_Rings>
2

> <Num_AromaticRings>
0

> <Molecular_FractionalPolarSurfaceArea>
0.275

> <Activity_Bin>
6

> <PLSTempModel>
-1.06639411956934

> <PLSTempModel_Residuals>
2.49941195693391e-002

$$$$
Untitled_496
  SciTegic11182514132D

 21 22  0  0  0  0            999 V2000
   -0.8583   -0.3875    0.0000 N   0  0
   -0.1458    0.0333    0.0000 C   0  0
   -0.1458    0.8583    0.0000 C   0  0
   -1.5708    0.0250    0.0000 C   0  0
   -1.5750    0.8500    0.0000 C   0  0
   -0.8583   -1.2125    0.0000 C   0  0
   -0.8625    1.2708    0.0000 C   0  0
    1.2792    0.8625    0.0000 C   0  0
    0.5667    1.2708    0.0000 C   0  0
    0.5750   -0.3792    0.0000 O   0  0
    1.2875    0.0375    0.0000 O   0  0
    1.9917    1.2750    0.0000 N   0  0
   -1.5708   -1.6250    0.0000 C   0  0
    2.7125    0.8708    0.0000 O   0  0
   -2.2958   -0.3917    0.0000 C   0  0
   -2.2958    1.2625    0.0000 C   0  0
   -1.5708   -2.4500    0.0000 C   0  0
   -2.2833   -2.8667    0.0000 C   0  0
   -0.8500   -2.8625    0.0000 C   0  0
   -3.0083    0.0208    0.0000 C   0  0
   -3.0083    0.8500    0.0000 C   0  0
  2  1  1  0
  3  2  1  0
  4  1  1  0
  5  4  2  0
  6  1  1  0
  7  5  1  0
  8  9  1  0
  9  3  1  0
 10  2  2  0
 11  8  2  0
 12  8  1  0
 13  6  1  0
 14 12  1  0
 15  4  1  0
 16  5  1  0
 17 13  1  0
 18 17  1  0
 19 17  1  0
 20 15  2  0
 21 20  1  0
  7  3  1  0
 21 16  2  0
M  END
> <Name>
Untitled_496

> <OBJECTID>
9223372384750403595

> <From>
www.bindingDB.org

> <BindingDB Reactant_set_id>
50259749

> <Ligand InChI>
InChI=1S/C16H22N2O3/c1-11(2)7-8-18-14-6-4-3-5-12(14)9-13(16(18)20)10-15(19)17-21/h3-6,11,13,21H,7-10H2,1-2H3,(H,17,19)

> <Ligand InChI Key>
RSHHXNLAUYYINK-UHFFFAOYSA-N

> <BindingDB MonomerID>
50141388

> <BindingDB Ligand Name>
CHEMBL34426::N-Hydroxy-2-[1-(3-methyl-butyl)-2-oxo-1,2,3,4-tetrahydro-quinolin-3-yl]-acetamide

> <Target Name>
Peptide deformylase

> <Target Source Organism According to Curator or DataSource>
Staphylococcus aureus (strain Mu50 / ATCC 700699)

> <Ki (nM)>
nan

> <IC50 (nM)>
63

> <Kd (nM)>
nan

> <EC50 (nM)>
nan

> <kon (M-1-s-1)>
nan

> <koff (s-1)>
nan

> <pH>
nan

> <Temp C>
nan

> <Curation/DataSource>
ChEMBL

> <Article DOI>
10.1016/j.bmcl.2004.01.014

> <BindingDB Entry DOI>
10.7270/Q2MS3S6G

> <PMID>
15006385

> <PubChem AID>
<NA>

> <Patent Number>
nan

> <Authors>
Molteni, V; He, X; Nabakka, J; Yang, K; Kreusch, A; Gordon, P; Bursulaya, B; Warner, I; Shin, T; Biorac, T; Ryder, NS; Goldberg, R; Doughty, J; He, Y

> <Date of publication>
3/9/2004

> <Date in BindingDB>
11/10/2009

> <Institution>
Genomics Institute of the Novartis Research Foundation

> <Link to Ligand in BindingDB>
http://www.bindingdb.org/bind/chemsearch/marvin/MolStructure.jsp?monomerid=50141388

> <Link to Ligand-Target Pair in BindingDB>
http://www.bindingdb.org/jsp/dbsearch/PrimarySearch_ki.jsp?energyterm=kJ/mole&tag=r21&monomerid=50141388&enzyme=Peptide+deformylase&column=ki&startPg=0&Increment=50&submit=Search

> <Ligand HET ID in PDB>
<NA>

> <PDB ID(s) for Ligand-Target Complex>
<NA>

> <PubChem CID of Ligand>
11312326

> <PubChem SID of Ligand>
104030847

> <ChEBI ID of Ligand>
nan

> <ChEMBL ID of Ligand>
CHEMBL34426

> <DrugBank ID of Ligand>
<NA>

> <IUPHAR_GRAC ID of Ligand>
nan

> <KEGG ID of Ligand>
<NA>

> <ZINC ID of Ligand>
ZINC29251225

> <Number of Protein Chains in Target (bigger than 1 implies a multichain complex)>
1

> <BindingDB Target Chain Sequence>
MLTMKDIIRDGHPTLRQKAAELELPLTKEEKETLIAMREFLVNSQDEEIAKRYGLRSGVGLAAPQINISKRMIAVLIPDDGSGKSYDYMLVNPKIVSHSVQEAYLPTGEGCLSVDDNVAGLVHRHNRITIKAKDIEGNDIQLRLKGYPAIVFQHEIDHLNGVMFYDHIDKNHPLQPHTDAVEV

> <PDB ID(s) of Target Chain>
1LM4,1LMH,1LQW,2AI9,6JFG,6JFO,6JFQ,6JFR,6JFS

> <UniProt (SwissProt) Recommended Name of Target Chain>
Peptide deformylase

> <UniProt (SwissProt) Entry Name of Target Chain>
DEF_STAAU

> <UniProt (SwissProt) Primary ID of Target Chain>
P68826

> <UniProt (SwissProt) Secondary ID(s) of Target Chain>
Q9F4L4

> <UniProt (SwissProt) Alternative ID(s) of Target Chain>
nan

> <UniProt (TrEMBL) Submitted Name of Target Chain>
<NA>

> <UniProt (TrEMBL) Entry Name of Target Chain>
<NA>

> <UniProt (TrEMBL) Primary ID of Target Chain>
<NA>

> <UniProt (TrEMBL) Secondary ID(s) of Target Chain>
nan

> <UniProt (TrEMBL) Alternative ID(s) of Target Chain>
nan

> <pIC50>
-1.7993

> <Num_H_Donors_Lipinski>
2

> <Num_H_Acceptors_Lipinski>
5

> <Molecular_Weight>
290.35748

> <ALogP>
2.088

> <Num_RotatableBonds>
5

> <Molecular_PolarSurfaceArea>
69.64

> <Num_H_Acceptors>
3

> <Num_H_Donors>
2

> <Num_Rings>
2

> <Num_AromaticRings>
1

> <Molecular_FractionalPolarSurfaceArea>
0.238

> <Activity_Bin>
4

> <PLSTempModel>
-1.62910498195848

> <PLSTempModel_Residuals>
-0.170195018041518

$$$$
Untitled_559
  SciTegic11182514132D

 23 25  0  0  0  0            999 V2000
   -1.7708   -0.6125    0.0000 N   0  0
   -1.0500   -0.1917    0.0000 C   0  0
   -1.0583    0.6333    0.0000 C   0  0
   -1.7708    1.0458    0.0000 S   0  0
   -2.4833   -0.2000    0.0000 C   0  0
   -2.4833    0.6250    0.0000 C   0  0
   -0.3458    1.0458    0.0000 C   0  0
    0.3750    0.6375    0.0000 C   0  0
   -1.7708   -1.4375    0.0000 C   0  0
   -0.3333   -0.6042    0.0000 O   0  0
    0.3792   -0.1875    0.0000 O   0  0
    1.0875    1.0500    0.0000 N   0  0
    1.8042    0.6458    0.0000 O   0  0
   -1.0625   -1.8542    0.0000 C   0  0
   -3.2000   -0.6167    0.0000 C   0  0
   -3.2000    1.0375    0.0000 C   0  0
   -1.0708   -2.6792    0.0000 C   0  0
   -0.3458   -1.4417    0.0000 C   0  0
   -3.9125   -0.2042    0.0000 C   0  0
   -3.9125    0.6250    0.0000 C   0  0
    0.3667   -1.8667    0.0000 C   0  0
   -0.3625   -3.0917    0.0000 C   0  0
    0.3542   -2.6917    0.0000 C   0  0
  2  1  1  0
  3  2  1  0
  4  6  1  0
  5  1  1  0
  6  5  2  0
  7  3  1  0
  8  7  1  0
  9  1  1  0
 10  2  2  0
 11  8  2  0
 12  8  1  0
 13 12  1  0
 14  9  1  0
 15  5  1  0
 16  6  1  0
 17 14  1  0
 18 14  1  0
 19 15  2  0
 20 19  1  0
 21 18  1  0
 22 17  1  0
 23 21  1  0
  4  3  1  0
 20 16  2  0
 23 22  1  0
M  END
> <Name>
Untitled_559

> <OBJECTID>
9223372423405109259

> <From>
www.bindingDB.org

> <BindingDB Reactant_set_id>
50259718

> <Ligand InChI>
InChI=1S/C17H22N2O3S/c20-16(18-22)10-15-17(21)19(11-12-6-2-1-3-7-12)13-8-4-5-9-14(13)23-15/h4-5,8-9,12,15,22H,1-3,6-7,10-11H2,(H,18,20)

> <Ligand InChI Key>
HNABCMPRRKNNOA-UHFFFAOYSA-N

> <BindingDB MonomerID>
50141362

> <BindingDB Ligand Name>
2-(4-Cyclohexylmethyl-3-oxo-3,4-dihydro-2H-benzo[1,4]thiazin-2-yl)-N-hydroxy-acetamide::CHEMBL33924

> <Target Name>
Peptide deformylase

> <Target Source Organism According to Curator or DataSource>
Staphylococcus aureus (strain Mu50 / ATCC 700699)

> <Ki (nM)>
nan

> <IC50 (nM)>
302

> <Kd (nM)>
nan

> <EC50 (nM)>
nan

> <kon (M-1-s-1)>
nan

> <koff (s-1)>
nan

> <pH>
nan

> <Temp C>
nan

> <Curation/DataSource>
ChEMBL

> <Article DOI>
10.1016/j.bmcl.2004.01.014

> <BindingDB Entry DOI>
10.7270/Q2MS3S6G

> <PMID>
15006385

> <PubChem AID>
<NA>

> <Patent Number>
nan

> <Authors>
Molteni, V; He, X; Nabakka, J; Yang, K; Kreusch, A; Gordon, P; Bursulaya, B; Warner, I; Shin, T; Biorac, T; Ryder, NS; Goldberg, R; Doughty, J; He, Y

> <Date of publication>
3/9/2004

> <Date in BindingDB>
11/10/2009

> <Institution>
Genomics Institute of the Novartis Research Foundation

> <Link to Ligand in BindingDB>
http://www.bindingdb.org/bind/chemsearch/marvin/MolStructure.jsp?monomerid=50141362

> <Link to Ligand-Target Pair in BindingDB>
http://www.bindingdb.org/jsp/dbsearch/PrimarySearch_ki.jsp?energyterm=kJ/mole&tag=r21&monomerid=50141362&enzyme=Peptide+deformylase&column=ki&startPg=0&Increment=50&submit=Search

> <Ligand HET ID in PDB>
<NA>

> <PDB ID(s) for Ligand-Target Complex>
<NA>

> <PubChem CID of Ligand>
44283284

> <PubChem SID of Ligand>
104030821

> <ChEBI ID of Ligand>
nan

> <ChEMBL ID of Ligand>
CHEMBL33924

> <DrugBank ID of Ligand>
<NA>

> <IUPHAR_GRAC ID of Ligand>
nan

> <KEGG ID of Ligand>
<NA>

> <ZINC ID of Ligand>
ZINC29249938

> <Number of Protein Chains in Target (bigger than 1 implies a multichain complex)>
1

> <BindingDB Target Chain Sequence>
MLTMKDIIRDGHPTLRQKAAELELPLTKEEKETLIAMREFLVNSQDEEIAKRYGLRSGVGLAAPQINISKRMIAVLIPDDGSGKSYDYMLVNPKIVSHSVQEAYLPTGEGCLSVDDNVAGLVHRHNRITIKAKDIEGNDIQLRLKGYPAIVFQHEIDHLNGVMFYDHIDKNHPLQPHTDAVEV

> <PDB ID(s) of Target Chain>
1LM4,1LMH,1LQW,2AI9,6JFG,6JFO,6JFQ,6JFR,6JFS

> <UniProt (SwissProt) Recommended Name of Target Chain>
Peptide deformylase

> <UniProt (SwissProt) Entry Name of Target Chain>
DEF_STAAU

> <UniProt (SwissProt) Primary ID of Target Chain>
P68826

> <UniProt (SwissProt) Secondary ID(s) of Target Chain>
Q9F4L4

> <UniProt (SwissProt) Alternative ID(s) of Target Chain>
nan

> <UniProt (TrEMBL) Submitted Name of Target Chain>
<NA>

> <UniProt (TrEMBL) Entry Name of Target Chain>
<NA>

> <UniProt (TrEMBL) Primary ID of Target Chain>
<NA>

> <UniProt (TrEMBL) Secondary ID(s) of Target Chain>
nan

> <UniProt (TrEMBL) Alternative ID(s) of Target Chain>
nan

> <pIC50>
-2.48

> <Num_H_Donors_Lipinski>
2

> <Num_H_Acceptors_Lipinski>
5

> <Molecular_Weight>
334.43317

> <ALogP>
2.823

> <Num_RotatableBonds>
4

> <Molecular_PolarSurfaceArea>
94.94

> <Num_H_Acceptors>
4

> <Num_H_Donors>
2

> <Num_Rings>
3

> <Num_AromaticRings>
1

> <Molecular_FractionalPolarSurfaceArea>
0.306

> <Activity_Bin>
3

> <PLSTempModel>
-1.91156363965865

> <PLSTempModel_Residuals>
-0.568436360341349

$$$$
Untitled_203
  SciTegic11182514132D

 30 31  0  0  0  0            999 V2000
   26.7750  -22.3750    0.0000 C   0  0  2  0  0  0
   27.4895  -21.9625    0.0000 C   0  0
   26.0605  -21.9625    0.0000 C   0  0
   25.3461  -22.3750    0.0000 N   0  0
   26.0605  -21.1375    0.0000 O   0  0
   28.2039  -22.3750    0.0000 N   0  0
   28.9184  -21.9625    0.0000 C   0  0
   28.2039  -23.2000    0.0000 O   0  0
   28.9184  -21.1375    0.0000 O   0  0
   26.7757  -23.1999    0.0000 C   0  0
   26.1007  -23.6749    0.0000 C   0  0
   25.3180  -23.4075    0.0000 C   0  0
   24.8232  -24.0676    0.0000 C   0  0
   25.2981  -24.7423    0.0000 C   0  0
   26.0864  -24.4990    0.0000 C   0  0
   24.5885  -22.0377    0.0000 C   0  0  1  0  0  0
   24.0364  -22.6508    0.0000 C   0  0
   24.4490  -23.3653    0.0000 C   0  0
   25.2559  -23.1937    0.0000 C   0  0
   24.4169  -21.2307    0.0000 C   0  0
   25.0300  -20.6787    0.0000 O   0  0
   23.6323  -20.9758    0.0000 N   0  0
   23.4608  -20.1688    0.0000 C   0  0
   24.0739  -19.6168    0.0000 O   0  0
   22.6762  -19.9139    0.0000 N   0  0
   22.5047  -19.1069    0.0000 C   0  0
   21.7200  -18.8520    0.0000 C   0  0
   21.5485  -18.0450    0.0000 C   0  0
   20.7639  -17.7900    0.0000 N   0  0
   22.1616  -17.4930    0.0000 O   0  0
 15 11  1  0
 16  4  1  0
  6  8  1  0
  7  9  2  0
  3  5  2  0
 16 17  1  0
 17 18  1  0
 18 19  1  0
 19  4  1  0
  1 10  1  1
 16 20  1  1
  1  3  1  0
 20 21  2  0
 10 11  1  0
 20 22  1  0
 11 12  1  0
 22 23  1  0
  2  6  1  0
 23 24  2  0
  1  2  1  0
 23 25  1  0
  6  7  1  0
 25 26  1  0
  3  4  1  0
 26 27  1  0
 12 13  1  0
 27 28  1  0
 13 14  1  0
 28 29  1  0
 14 15  1  0
 28 30  2  0
M  END
> <Name>
Untitled_203

> <OBJECTID>
9223372161412104203

> <From>
www.bindingDB.org

> <BindingDB Reactant_set_id>
50935669

> <Ligand InChI>
InChI=1S/C19H31N5O6/c20-16(26)7-8-21-19(29)22-17(27)15-6-3-9-24(15)18(28)14(11-23(30)12-25)10-13-4-1-2-5-13/h12-15,30H,1-11H2,(H2,20,26)(H2,21,22,27,29)/t14-,15+/m1/s1

> <Ligand InChI Key>
QFWSNBCYIILFGI-CABCVRRESA-N

> <BindingDB MonomerID>
50383973

> <BindingDB Ligand Name>
CHEMBL2032147

> <Target Name>
Peptide deformylase

> <Target Source Organism According to Curator or DataSource>
Streptococcus pneumoniae serotype 4 (strain ATCC BAA-334 / TIGR4)

> <Ki (nM)>
nan

> <IC50 (nM)>
0.72

> <Kd (nM)>
nan

> <EC50 (nM)>
nan

> <kon (M-1-s-1)>
nan

> <koff (s-1)>
nan

> <pH>
nan

> <Temp C>
nan

> <Curation/DataSource>
ChEMBL

> <Article DOI>
10.1016/j.bmcl.2012.04.086

> <BindingDB Entry DOI>
10.7270/Q2K64K3V

> <PMID>
22579486

> <PubChem AID>
<NA>

> <Patent Number>
nan

> <Authors>
Axten, JM; Medina, JR; Blackledge, CW; Duquenne, C; Grant, SW; Bobko, MA; Peng, T; Miller, WH; Pinckney, T; Gallagher, TF; Kulkarni, S; Lewandowski, T; Van Aller, GS; Zonis, R; Ward, P; Campobasso, N

> <Date of publication>
5/29/2012

> <Date in BindingDB>
2/7/2013

> <Institution>
GlaxoSmithKline

> <Link to Ligand in BindingDB>
http://www.bindingdb.org/bind/chemsearch/marvin/MolStructure.jsp?monomerid=50383973

> <Link to Ligand-Target Pair in BindingDB>
http://www.bindingdb.org/jsp/dbsearch/PrimarySearch_ki.jsp?energyterm=kJ/mole&tag=r21&monomerid=50383973&enzyme=Peptide+deformylase&column=ki&startPg=0&Increment=50&submit=Search

> <Ligand HET ID in PDB>
<NA>

> <PDB ID(s) for Ligand-Target Complex>
<NA>

> <PubChem CID of Ligand>
70685926

> <PubChem SID of Ligand>
160863056

> <ChEBI ID of Ligand>
nan

> <ChEMBL ID of Ligand>
CHEMBL2032147

> <DrugBank ID of Ligand>
<NA>

> <IUPHAR_GRAC ID of Ligand>
nan

> <KEGG ID of Ligand>
<NA>

> <ZINC ID of Ligand>
ZINC84670516

> <Number of Protein Chains in Target (bigger than 1 implies a multichain complex)>
1

> <BindingDB Target Chain Sequence>
MSAIERITKAAHLIDMNDIIREGNPTLRAIAEEVTFPLSDQEIILGEKMMQFLKHSQDPVMAEKMGLRGGVGLAAPQLDISKRIIAVLVPNIVEEGETPQEAYDLEAIMYNPKIVSHSVQDAALGEGEGCLSVDRNVPGYVVRHARVTVDYFDKDGEKHRIKLKGYNSIVVQHEIDHINGIMFYDRINEKDPFAVKDGLL
ILE

> <PDB ID(s) of Target Chain>
<NA>

> <UniProt (SwissProt) Recommended Name of Target Chain>
Peptide deformylase

> <UniProt (SwissProt) Entry Name of Target Chain>
DEF_STRPN

> <UniProt (SwissProt) Primary ID of Target Chain>
Q9F2F0

> <UniProt (SwissProt) Secondary ID(s) of Target Chain>
<NA>

> <UniProt (SwissProt) Alternative ID(s) of Target Chain>
nan

> <UniProt (TrEMBL) Submitted Name of Target Chain>
<NA>

> <UniProt (TrEMBL) Entry Name of Target Chain>
<NA>

> <UniProt (TrEMBL) Primary ID of Target Chain>
<NA>

> <UniProt (TrEMBL) Secondary ID(s) of Target Chain>
nan

> <UniProt (TrEMBL) Alternative ID(s) of Target Chain>
nan

> <pIC50>
0.1427

> <Num_H_Donors_Lipinski>
5

> <Num_H_Acceptors_Lipinski>
11

> <Molecular_Weight>
425.47934

> <ALogP>
-0.473

> <Num_RotatableBonds>
9

> <Molecular_PolarSurfaceArea>
162.14

> <Num_H_Acceptors>
6

> <Num_H_Donors>
4

> <Num_Rings>
2

> <Num_AromaticRings>
0

> <Molecular_FractionalPolarSurfaceArea>
0.383

> <Activity_Bin>
9

> <PLSTempModel>
-0.120485186553545

> <PLSTempModel_Residuals>
0.263185186553546

$$$$
Untitled_286
  SciTegic11182514132D

 26 27  0  0  0  0            999 V2000
    1.2375  -16.6708    0.0000 C   0  0  2  0  0  0
    1.9520  -16.2583    0.0000 C   0  0
    0.5230  -16.2583    0.0000 C   0  0
   -0.1914  -16.6708    0.0000 N   0  0
    0.5230  -15.4333    0.0000 O   0  0
    2.6664  -16.6708    0.0000 N   0  0
    3.3809  -16.2583    0.0000 C   0  0
    2.6664  -17.4958    0.0000 O   0  0
    3.3809  -15.4333    0.0000 O   0  0
    1.2382  -17.4958    0.0000 C   0  0
    0.5632  -17.9707    0.0000 C   0  0
   -0.2195  -17.7033    0.0000 C   0  0
   -0.7143  -18.3634    0.0000 C   0  0
   -0.2394  -19.0381    0.0000 C   0  0
    0.5489  -18.7948    0.0000 C   0  0
   -0.9490  -16.3335    0.0000 C   0  0  1  0  0  0
   -1.5011  -16.9466    0.0000 C   0  0
   -1.0885  -17.6611    0.0000 C   0  0
   -0.2816  -17.4895    0.0000 C   0  0
   -1.1206  -15.5266    0.0000 C   0  0
   -0.5075  -14.9745    0.0000 O   0  0
   -1.9052  -15.2716    0.0000 N   0  0
   -2.0767  -14.4646    0.0000 C   0  0
   -1.4636  -13.9126    0.0000 O   0  0
   -2.8613  -14.2097    0.0000 O   0  0
   -3.0328  -13.4027    0.0000 C   0  0
  3  4  1  0
 12 13  1  0
 13 14  1  0
 14 15  1  0
 15 11  1  0
 16  4  1  0
  6  8  1  0
  7  9  2  0
  3  5  2  0
 16 17  1  0
 17 18  1  0
 18 19  1  0
 19  4  1  0
  1 10  1  1
 16 20  1  1
  1  3  1  0
 20 21  2  0
 10 11  1  0
 20 22  1  0
 11 12  1  0
 22 23  1  0
  2  6  1  0
 23 24  2  0
  1  2  1  0
 23 25  1  0
  6  7  1  0
 25 26  1  0
M  END
> <Name>
Untitled_286

> <OBJECTID>
9223372294556090379

> <From>
www.bindingDB.org

> <BindingDB Reactant_set_id>
50935680

> <Ligand InChI>
InChI=1S/C17H27N3O6/c1-26-17(24)18-15(22)14-7-4-8-20(14)16(23)13(10-19(25)11-21)9-12-5-2-3-6-12/h11-14,25H,2-10H2,1H3,(H,18,22,24)/t13-,14+/m1/s1

> <Ligand InChI Key>
LODHUVNBDRQVHZ-KGLIPLIRSA-N

> <BindingDB MonomerID>
50383983

> <BindingDB Ligand Name>
CHEMBL2032120

> <Target Name>
Peptide deformylase

> <Target Source Organism According to Curator or DataSource>
Staphylococcus aureus

> <Ki (nM)>
nan

> <IC50 (nM)>
4.5

> <Kd (nM)>
nan

> <EC50 (nM)>
nan

> <kon (M-1-s-1)>
nan

> <koff (s-1)>
nan

> <pH>
nan

> <Temp C>
nan

> <Curation/DataSource>
ChEMBL

> <Article DOI>
10.1016/j.bmcl.2012.04.086

> <BindingDB Entry DOI>
10.7270/Q2K64K3V

> <PMID>
22579486

> <PubChem AID>
<NA>

> <Patent Number>
nan

> <Authors>
Axten, JM; Medina, JR; Blackledge, CW; Duquenne, C; Grant, SW; Bobko, MA; Peng, T; Miller, WH; Pinckney, T; Gallagher, TF; Kulkarni, S; Lewandowski, T; Van Aller, GS; Zonis, R; Ward, P; Campobasso, N

> <Date of publication>
5/29/2012

> <Date in BindingDB>
2/7/2013

> <Institution>
GlaxoSmithKline

> <Link to Ligand in BindingDB>
http://www.bindingdb.org/bind/chemsearch/marvin/MolStructure.jsp?monomerid=50383983

> <Link to Ligand-Target Pair in BindingDB>
http://www.bindingdb.org/jsp/dbsearch/PrimarySearch_ki.jsp?energyterm=kJ/mole&tag=r21&monomerid=50383983&enzyme=Peptide+deformylase&column=ki&startPg=0&Increment=50&submit=Search

> <Ligand HET ID in PDB>
<NA>

> <PDB ID(s) for Ligand-Target Complex>
<NA>

> <PubChem CID of Ligand>
16036037

> <PubChem SID of Ligand>
160863066

> <ChEBI ID of Ligand>
nan

> <ChEMBL ID of Ligand>
CHEMBL2032120

> <DrugBank ID of Ligand>
<NA>

> <IUPHAR_GRAC ID of Ligand>
nan

> <KEGG ID of Ligand>
<NA>

> <ZINC ID of Ligand>
ZINC34874051

> <Number of Protein Chains in Target (bigger than 1 implies a multichain complex)>
1

> <BindingDB Target Chain Sequence>
MLTMKDIIRD GHPTLRQKAA ELELPLTKEE KETLIAMREF LVNSQDEEIA
KRYGLRSGVG LAAPQINISK RMIAVLIPDD GSGKSYDYML VNPKIVSHSV
QEAYLPTGEG CLSVDDNVAG LVHRHNRITI KAKDIEGNDI QLRLKGYPAI
VFQHEIDHLN GVMFYDHIDK NHPLQPHTDA VEV

> <PDB ID(s) of Target Chain>
1LM4,1LMH,1LQW,2AI9,6JFG,6JFO,6JFQ,6JFR,6JFS

> <UniProt (SwissProt) Recommended Name of Target Chain>
Peptide deformylase

> <UniProt (SwissProt) Entry Name of Target Chain>
DEF_STAAM

> <UniProt (SwissProt) Primary ID of Target Chain>
P68825

> <UniProt (SwissProt) Secondary ID(s) of Target Chain>
Q9F4L4

> <UniProt (SwissProt) Alternative ID(s) of Target Chain>
nan

> <UniProt (TrEMBL) Submitted Name of Target Chain>
<NA>

> <UniProt (TrEMBL) Entry Name of Target Chain>
<NA>

> <UniProt (TrEMBL) Primary ID of Target Chain>
<NA>

> <UniProt (TrEMBL) Secondary ID(s) of Target Chain>
nan

> <UniProt (TrEMBL) Alternative ID(s) of Target Chain>
nan

> <pIC50>
-0.6532

> <Num_H_Donors_Lipinski>
2

> <Num_H_Acceptors_Lipinski>
9

> <Molecular_Weight>
369.41278

> <ALogP>
1.072

> <Num_RotatableBonds>
7

> <Molecular_PolarSurfaceArea>
116.25

> <Num_H_Acceptors>
6

> <Num_H_Donors>
2

> <Num_Rings>
2

> <Num_AromaticRings>
0

> <Molecular_FractionalPolarSurfaceArea>
0.319

> <Activity_Bin>
7

> <PLSTempModel>
-0.124491474264592

> <PLSTempModel_Residuals>
-0.528708525735408

$$$$
Untitled_35
  SciTegic11182514132D

 30 32  0  0  0  0            999 V2000
    0.1208   -8.4917    0.0000 C   0  0  2  0  0  0
    0.8353   -8.0792    0.0000 C   0  0
   -0.5936   -8.0792    0.0000 C   0  0
   -1.3081   -8.4917    0.0000 N   0  0
   -0.5936   -7.2542    0.0000 O   0  0
    1.5498   -8.4917    0.0000 N   0  0
    2.2642   -8.0792    0.0000 C   0  0
    1.5498   -9.3167    0.0000 O   0  0
    2.2642   -7.2542    0.0000 O   0  0
    0.1215   -9.3166    0.0000 C   0  0
   -0.5534   -9.7915    0.0000 C   0  0
   -1.3361   -9.5242    0.0000 C   0  0
   -1.8310  -10.1843    0.0000 C   0  0
   -1.3561  -10.8590    0.0000 C   0  0
   -0.5678  -10.6157    0.0000 C   0  0
   -2.0657   -8.1544    0.0000 C   0  0  1  0  0  0
   -2.6177   -8.7675    0.0000 C   0  0
   -2.2052   -9.4820    0.0000 C   0  0
   -1.3983   -9.3103    0.0000 C   0  0
   -2.2372   -7.3474    0.0000 C   0  0
   -1.6241   -6.7954    0.0000 O   0  0
   -3.0218   -7.0924    0.0000 N   0  0
   -3.1934   -6.2855    0.0000 C   0  0
   -2.5803   -5.7334    0.0000 O   0  0
   -3.9780   -6.0305    0.0000 N   0  0
   -4.1495   -5.2236    0.0000 C   0  0
   -3.5970   -4.6055    0.0000 C   0  0
   -4.0095   -3.8910    0.0000 C   0  0
   -4.8166   -4.0626    0.0000 C   0  0
   -4.9027   -4.8830    0.0000 C   0  0
 15 11  1  0
 16  4  1  0
  6  8  1  0
  7  9  2  0
  3  5  2  0
 16 17  1  0
 17 18  1  0
 18 19  1  0
 19  4  1  0
  1 10  1  1
 16 20  1  1
  1  3  1  0
 20 21  2  0
 10 11  1  0
 20 22  1  0
 11 12  1  0
 22 23  1  0
  2  6  1  0
 23 24  2  0
  1  2  1  0
 23 25  1  0
  6  7  1  0
 25 26  1  0
 26 27  1  0
  3  4  1  0
 12 13  1  0
 13 14  1  0
 14 15  1  0
 27 28  1  0
 28 29  1  0
 29 30  1  0
 30 26  1  0
M  END
> <Name>
Untitled_35

> <OBJECTID>
9223372036858052619

> <From>
www.bindingDB.org

> <BindingDB Reactant_set_id>
50935656

> <Ligand InChI>
InChI=1S/C21H34N4O5/c26-14-24(30)13-16(12-15-6-1-2-7-15)20(28)25-11-5-10-18(25)19(27)23-21(29)22-17-8-3-4-9-17/h14-18,30H,1-13H2,(H2,22,23,27,29)/t16-,18+/m1/s1

> <Ligand InChI Key>
POLATGYVZGSVCI-AEFFLSMTSA-N

> <BindingDB MonomerID>
50383996

> <BindingDB Ligand Name>
CHEMBL2032134

> <Target Name>
Peptide deformylase

> <Target Source Organism According to Curator or DataSource>
Streptococcus pneumoniae serotype 4 (strain ATCC BAA-334 / TIGR4)

> <Ki (nM)>
nan

> <IC50 (nM)>
0.1

> <Kd (nM)>
nan

> <EC50 (nM)>
nan

> <kon (M-1-s-1)>
nan

> <koff (s-1)>
nan

> <pH>
nan

> <Temp C>
nan

> <Curation/DataSource>
ChEMBL

> <Article DOI>
10.1016/j.bmcl.2012.04.086

> <BindingDB Entry DOI>
10.7270/Q2K64K3V

> <PMID>
22579486

> <PubChem AID>
<NA>

> <Patent Number>
nan

> <Authors>
Axten, JM; Medina, JR; Blackledge, CW; Duquenne, C; Grant, SW; Bobko, MA; Peng, T; Miller, WH; Pinckney, T; Gallagher, TF; Kulkarni, S; Lewandowski, T; Van Aller, GS; Zonis, R; Ward, P; Campobasso, N

> <Date of publication>
5/29/2012

> <Date in BindingDB>
2/7/2013

> <Institution>
GlaxoSmithKline

> <Link to Ligand in BindingDB>
http://www.bindingdb.org/bind/chemsearch/marvin/MolStructure.jsp?monomerid=50383996

> <Link to Ligand-Target Pair in BindingDB>
http://www.bindingdb.org/jsp/dbsearch/PrimarySearch_ki.jsp?energyterm=kJ/mole&tag=r21&monomerid=50383996&enzyme=Peptide+deformylase&column=ki&startPg=0&Increment=50&submit=Search

> <Ligand HET ID in PDB>
<NA>

> <PDB ID(s) for Ligand-Target Complex>
<NA>

> <PubChem CID of Ligand>
16034968

> <PubChem SID of Ligand>
160863079

> <ChEBI ID of Ligand>
nan

> <ChEMBL ID of Ligand>
CHEMBL2032134

> <DrugBank ID of Ligand>
<NA>

> <IUPHAR_GRAC ID of Ligand>
nan

> <KEGG ID of Ligand>
<NA>

> <ZINC ID of Ligand>
ZINC34872985

> <Number of Protein Chains in Target (bigger than 1 implies a multichain complex)>
1

> <BindingDB Target Chain Sequence>
MSAIERITKAAHLIDMNDIIREGNPTLRAIAEEVTFPLSDQEIILGEKMMQFLKHSQDPVMAEKMGLRGGVGLAAPQLDISKRIIAVLVPNIVEEGETPQEAYDLEAIMYNPKIVSHSVQDAALGEGEGCLSVDRNVPGYVVRHARVTVDYFDKDGEKHRIKLKGYNSIVVQHEIDHINGIMFYDRINEKDPFAVKDGLL
ILE

> <PDB ID(s) of Target Chain>
<NA>

> <UniProt (SwissProt) Recommended Name of Target Chain>
Peptide deformylase

> <UniProt (SwissProt) Entry Name of Target Chain>
DEF_STRPN

> <UniProt (SwissProt) Primary ID of Target Chain>
Q9F2F0

> <UniProt (SwissProt) Secondary ID(s) of Target Chain>
<NA>

> <UniProt (SwissProt) Alternative ID(s) of Target Chain>
nan

> <UniProt (TrEMBL) Submitted Name of Target Chain>
<NA>

> <UniProt (TrEMBL) Entry Name of Target Chain>
<NA>

> <UniProt (TrEMBL) Primary ID of Target Chain>
<NA>

> <UniProt (TrEMBL) Secondary ID(s) of Target Chain>
nan

> <UniProt (TrEMBL) Alternative ID(s) of Target Chain>
nan

> <pIC50>
1

> <Num_H_Donors_Lipinski>
3

> <Num_H_Acceptors_Lipinski>
9

> <Molecular_Weight>
422.51846

> <ALogP>
1.827

> <Num_RotatableBonds>
7

> <Molecular_PolarSurfaceArea>
119.05

> <Num_H_Acceptors>
5

> <Num_H_Donors>
3

> <Num_Rings>
3

> <Num_AromaticRings>
0

> <Molecular_FractionalPolarSurfaceArea>
0.29

> <Activity_Bin>
11

> <PLSTempModel>
0.559596052218478

> <PLSTempModel_Residuals>
0.440403947781522

$$$$
Untitled_451
  SciTegic11182514132D

 17 18  0  0  0  0            999 V2000
   -1.6430   -0.5782    0.0000 N   0  0
   -0.9234   -0.1664    0.0000 C   0  0
   -0.9317    0.6614    0.0000 C   0  0
   -1.6430    1.0732    0.0000 S   0  0
   -2.3543   -0.1664    0.0000 C   0  0
   -2.3543    0.6572    0.0000 C   0  0
   -0.2204    1.0732    0.0000 C   0  0
    0.4992    0.6697    0.0000 C   0  0
   -0.2079   -0.5782    0.0000 O   0  0
    0.5033   -0.1539    0.0000 O   0  0
    1.2105    1.0815    0.0000 N   0  0
   -1.6430   -1.4018    0.0000 C   0  0
    1.9259    0.6697    0.0000 O   0  0
   -3.0698   -0.5865    0.0000 C   0  0
   -3.0698    1.0690    0.0000 C   0  0
   -3.7811   -0.1747    0.0000 C   0  0
   -3.7811    0.6489    0.0000 C   0  0
  2  1  1  0
  3  2  1  0
  4  6  1  0
  5  1  1  0
  6  5  2  0
  7  3  1  0
  8  7  1  0
  9  2  2  0
 10  8  2  0
 11  8  1  0
 12  1  1  0
 13 11  1  0
 14  5  1  0
 15  6  1  0
 16 14  2  0
 17 16  1  0
  4  3  1  0
 17 15  2  0
M  END
> <Name>
Untitled_451

> <OBJECTID>
9223372350390665227

> <From>
www.bindingDB.org

> <BindingDB Reactant_set_id>
50259719

> <Ligand InChI>
InChI=1S/C11H12N2O3S/c1-13-7-4-2-3-5-8(7)17-9(11(13)15)6-10(14)12-16/h2-5,9,16H,6H2,1H3,(H,12,14)

> <Ligand InChI Key>
HTOKZQYVLHRUDM-UHFFFAOYSA-N

> <BindingDB MonomerID>
50141363

> <BindingDB Ligand Name>
CHEMBL287497::N-Hydroxy-2-(4-methyl-3-oxo-3,4-dihydro-2H-benzo[1,4]thiazin-2-yl)-acetamide

> <Target Name>
Peptide deformylase

> <Target Source Organism According to Curator or DataSource>
Staphylococcus aureus (strain Mu50 / ATCC 700699)

> <Ki (nM)>
nan

> <IC50 (nM)>
37

> <Kd (nM)>
nan

> <EC50 (nM)>
nan

> <kon (M-1-s-1)>
nan

> <koff (s-1)>
nan

> <pH>
nan

> <Temp C>
nan

> <Curation/DataSource>
ChEMBL

> <Article DOI>
10.1016/j.bmcl.2004.01.014

> <BindingDB Entry DOI>
10.7270/Q2MS3S6G

> <PMID>
15006385

> <PubChem AID>
<NA>

> <Patent Number>
nan

> <Authors>
Molteni, V; He, X; Nabakka, J; Yang, K; Kreusch, A; Gordon, P; Bursulaya, B; Warner, I; Shin, T; Biorac, T; Ryder, NS; Goldberg, R; Doughty, J; He, Y

> <Date of publication>
3/9/2004

> <Date in BindingDB>
11/10/2009

> <Institution>
Genomics Institute of the Novartis Research Foundation

> <Link to Ligand in BindingDB>
http://www.bindingdb.org/bind/chemsearch/marvin/MolStructure.jsp?monomerid=50141363

> <Link to Ligand-Target Pair in BindingDB>
http://www.bindingdb.org/jsp/dbsearch/PrimarySearch_ki.jsp?energyterm=kJ/mole&tag=r21&monomerid=50141363&enzyme=Peptide+deformylase&column=ki&startPg=0&Increment=50&submit=Search

> <Ligand HET ID in PDB>
<NA>

> <PDB ID(s) for Ligand-Target Complex>
<NA>

> <PubChem CID of Ligand>
11368756

> <PubChem SID of Ligand>
104030822

> <ChEBI ID of Ligand>
nan

> <ChEMBL ID of Ligand>
CHEMBL287497

> <DrugBank ID of Ligand>
<NA>

> <IUPHAR_GRAC ID of Ligand>
nan

> <KEGG ID of Ligand>
<NA>

> <ZINC ID of Ligand>
ZINC29245004

> <Number of Protein Chains in Target (bigger than 1 implies a multichain complex)>
1

> <BindingDB Target Chain Sequence>
MLTMKDIIRDGHPTLRQKAAELELPLTKEEKETLIAMREFLVNSQDEEIAKRYGLRSGVGLAAPQINISKRMIAVLIPDDGSGKSYDYMLVNPKIVSHSVQEAYLPTGEGCLSVDDNVAGLVHRHNRITIKAKDIEGNDIQLRLKGYPAIVFQHEIDHLNGVMFYDHIDKNHPLQPHTDAVEV

> <PDB ID(s) of Target Chain>
1LM4,1LMH,1LQW,2AI9,6JFG,6JFO,6JFQ,6JFR,6JFS

> <UniProt (SwissProt) Recommended Name of Target Chain>
Peptide deformylase

> <UniProt (SwissProt) Entry Name of Target Chain>
DEF_STAAU

> <UniProt (SwissProt) Primary ID of Target Chain>
P68826

> <UniProt (SwissProt) Secondary ID(s) of Target Chain>
Q9F4L4

> <UniProt (SwissProt) Alternative ID(s) of Target Chain>
nan

> <UniProt (TrEMBL) Submitted Name of Target Chain>
<NA>

> <UniProt (TrEMBL) Entry Name of Target Chain>
<NA>

> <UniProt (TrEMBL) Primary ID of Target Chain>
<NA>

> <UniProt (TrEMBL) Secondary ID(s) of Target Chain>
nan

> <UniProt (TrEMBL) Alternative ID(s) of Target Chain>
nan

> <pIC50>
-1.5682

> <Num_H_Donors_Lipinski>
2

> <Num_H_Acceptors_Lipinski>
5

> <Molecular_Weight>
252.28957

> <ALogP>
0.634

> <Num_RotatableBonds>
2

> <Molecular_PolarSurfaceArea>
94.94

> <Num_H_Acceptors>
4

> <Num_H_Donors>
2

> <Num_Rings>
2

> <Num_AromaticRings>
1

> <Molecular_FractionalPolarSurfaceArea>
0.405

> <Activity_Bin>
5

> <PLSTempModel>
-2.1787990254833

> <PLSTempModel_Residuals>
0.610599025483296

$$$$
Untitled_196
  SciTegic11182514132D

 29 30  0  0  0  0            999 V2000
   26.4792  -15.9125    0.0000 C   0  0  2  0  0  0
   27.1936  -15.5000    0.0000 C   0  0
   25.7647  -15.5000    0.0000 C   0  0
   25.0502  -15.9125    0.0000 N   0  0
   25.7647  -14.6750    0.0000 O   0  0
   27.9081  -15.9125    0.0000 N   0  0
   28.6226  -15.5000    0.0000 C   0  0
   27.9081  -16.7375    0.0000 O   0  0
   28.6226  -14.6750    0.0000 O   0  0
   26.4798  -16.7374    0.0000 C   0  0
   25.8049  -17.2124    0.0000 C   0  0
   25.0222  -16.9450    0.0000 C   0  0
   24.5273  -17.6051    0.0000 C   0  0
   25.0022  -18.2798    0.0000 C   0  0
   25.7905  -18.0365    0.0000 C   0  0
   24.2926  -15.5752    0.0000 C   0  0  1  0  0  0
   23.7406  -16.1883    0.0000 C   0  0
   24.1531  -16.9028    0.0000 C   0  0
   24.9600  -16.7312    0.0000 C   0  0
   24.1211  -14.7682    0.0000 C   0  0
   24.7342  -14.2162    0.0000 O   0  0
   23.3365  -14.5133    0.0000 N   0  0
   23.1650  -13.7063    0.0000 C   0  0
   23.7781  -13.1543    0.0000 O   0  0
   22.3803  -13.4514    0.0000 O   0  0
   22.2088  -12.6444    0.0000 C   0  0
   22.8219  -12.0924    0.0000 C   0  0
   21.4242  -12.3895    0.0000 C   0  0
   21.9917  -11.8417    0.0000 C   0  0
 14 15  1  0
 15 11  1  0
 16  4  1  0
  6  8  1  0
  7  9  2  0
  3  5  2  0
 16 17  1  0
 17 18  1  0
 18 19  1  0
 19  4  1  0
  1 10  1  1
 16 20  1  1
  1  3  1  0
 20 21  2  0
 10 11  1  0
 20 22  1  0
 11 12  1  0
 22 23  1  0
  2  6  1  0
 23 24  2  0
  1  2  1  0
 23 25  1  0
  6  7  1  0
 25 26  1  0
  3  4  1  0
 26 27  1  0
 12 13  1  0
 26 28  1  0
 13 14  1  0
 26 29  1  0
M  END
> <Name>
Untitled_196

> <OBJECTID>
9223372139937267723

> <From>
www.bindingDB.org

> <BindingDB Reactant_set_id>
50935645

> <Ligand InChI>
InChI=1S/C20H33N3O6/c1-20(2,3)29-19(27)21-17(25)16-9-6-10-23(16)18(26)15(12-22(28)13-24)11-14-7-4-5-8-14/h13-16,28H,4-12H2,1-3H3,(H,21,25,27)/t15-,16+/m1/s1

> <Ligand InChI Key>
CZSWHORSWAHBIA-CVEARBPZSA-N

> <BindingDB MonomerID>
50383985

> <BindingDB Ligand Name>
CHEMBL2032123

> <Target Name>
Peptide deformylase

> <Target Source Organism According to Curator or DataSource>
Streptococcus pneumoniae serotype 4 (strain ATCC BAA-334 / TIGR4)

> <Ki (nM)>
nan

> <IC50 (nM)>
0.52

> <Kd (nM)>
nan

> <EC50 (nM)>
nan

> <kon (M-1-s-1)>
nan

> <koff (s-1)>
nan

> <pH>
nan

> <Temp C>
nan

> <Curation/DataSource>
ChEMBL

> <Article DOI>
10.1016/j.bmcl.2012.04.086

> <BindingDB Entry DOI>
10.7270/Q2K64K3V

> <PMID>
22579486

> <PubChem AID>
<NA>

> <Patent Number>
nan

> <Authors>
Axten, JM; Medina, JR; Blackledge, CW; Duquenne, C; Grant, SW; Bobko, MA; Peng, T; Miller, WH; Pinckney, T; Gallagher, TF; Kulkarni, S; Lewandowski, T; Van Aller, GS; Zonis, R; Ward, P; Campobasso, N

> <Date of publication>
5/29/2012

> <Date in BindingDB>
2/7/2013

> <Institution>
GlaxoSmithKline

> <Link to Ligand in BindingDB>
http://www.bindingdb.org/bind/chemsearch/marvin/MolStructure.jsp?monomerid=50383985

> <Link to Ligand-Target Pair in BindingDB>
http://www.bindingdb.org/jsp/dbsearch/PrimarySearch_ki.jsp?energyterm=kJ/mole&tag=r21&monomerid=50383985&enzyme=Peptide+deformylase&column=ki&startPg=0&Increment=50&submit=Search

> <Ligand HET ID in PDB>
<NA>

> <PDB ID(s) for Ligand-Target Complex>
<NA>

> <PubChem CID of Ligand>
16036282

> <PubChem SID of Ligand>
160863068

> <ChEBI ID of Ligand>
nan

> <ChEMBL ID of Ligand>
CHEMBL2032123

> <DrugBank ID of Ligand>
<NA>

> <IUPHAR_GRAC ID of Ligand>
nan

> <KEGG ID of Ligand>
<NA>

> <ZINC ID of Ligand>
ZINC34874249

> <Number of Protein Chains in Target (bigger than 1 implies a multichain complex)>
1

> <BindingDB Target Chain Sequence>
MSAIERITKAAHLIDMNDIIREGNPTLRAIAEEVTFPLSDQEIILGEKMMQFLKHSQDPVMAEKMGLRGGVGLAAPQLDISKRIIAVLVPNIVEEGETPQEAYDLEAIMYNPKIVSHSVQDAALGEGEGCLSVDRNVPGYVVRHARVTVDYFDKDGEKHRIKLKGYNSIVVQHEIDHINGIMFYDRINEKDPFAVKDGLL
ILE

> <PDB ID(s) of Target Chain>
<NA>

> <UniProt (SwissProt) Recommended Name of Target Chain>
Peptide deformylase

> <UniProt (SwissProt) Entry Name of Target Chain>
DEF_STRPN

> <UniProt (SwissProt) Primary ID of Target Chain>
Q9F2F0

> <UniProt (SwissProt) Secondary ID(s) of Target Chain>
<NA>

> <UniProt (SwissProt) Alternative ID(s) of Target Chain>
nan

> <UniProt (TrEMBL) Submitted Name of Target Chain>
<NA>

> <UniProt (TrEMBL) Entry Name of Target Chain>
<NA>

> <UniProt (TrEMBL) Primary ID of Target Chain>
<NA>

> <UniProt (TrEMBL) Secondary ID(s) of Target Chain>
nan

> <UniProt (TrEMBL) Alternative ID(s) of Target Chain>
nan

> <pIC50>
0.284

> <Num_H_Donors_Lipinski>
2

> <Num_H_Acceptors_Lipinski>
9

> <Molecular_Weight>
411.49252

> <ALogP>
2.003

> <Num_RotatableBonds>
8

> <Molecular_PolarSurfaceArea>
116.25

> <Num_H_Acceptors>
6

> <Num_H_Donors>
2

> <Num_Rings>
2

> <Num_AromaticRings>
0

> <Molecular_FractionalPolarSurfaceArea>
0.277

> <Activity_Bin>
9

> <PLSTempModel>
-8.59264173895315e-002

> <PLSTempModel_Residuals>
0.369926417389531

$$$$
Untitled_561
  SciTegic11182514132D

 16 17  0  0  0  0            999 V2000
   -1.8583   -2.5167    0.0000 N   0  0
   -1.1458   -2.1000    0.0000 C   0  0
   -1.8625   -0.8542    0.0000 S   0  0
   -1.1458   -1.2667    0.0000 C   0  0
   -0.4333   -0.8542    0.0000 C   0  0
   -2.5708   -2.1042    0.0000 C   0  0
   -2.5750   -1.2792    0.0000 C   0  0
    0.2792   -1.2667    0.0000 C   0  0
   -0.4250   -2.5125    0.0000 O   0  0
    0.2875   -2.0917    0.0000 O   0  0
    0.9917   -0.8542    0.0000 N   0  0
    1.7125   -1.2625    0.0000 N   0  0
   -3.2958   -2.5167    0.0000 C   0  0
   -3.2958   -0.8667    0.0000 C   0  0
   -4.0083   -1.2792    0.0000 C   0  0
   -4.0083   -2.1042    0.0000 C   0  0
  2  1  1  0
  3  7  1  0
  4  2  1  0
  5  4  1  0
  6  1  1  0
  7  6  2  0
  8  5  1  0
  9  2  2  0
 10  8  2  0
 11  8  1  0
 12 11  1  0
 13  6  1  0
 14  7  1  0
 15 16  1  0
 16 13  2  0
  3  4  1  0
 15 14  2  0
M  END
> <Name>
Untitled_561

> <OBJECTID>
9223372427700076555

> <From>
www.bindingDB.org

> <BindingDB Reactant_set_id>
50259736

> <Ligand InChI>
InChI=1S/C10H11N3O2S/c11-13-9(14)5-8-10(15)12-6-3-1-2-4-7(6)16-8/h1-4,8H,5,11H2,(H,12,15)(H,13,14)

> <Ligand InChI Key>
QWRORGHKZBEAOV-UHFFFAOYSA-N

> <BindingDB MonomerID>
50141379

> <BindingDB Ligand Name>
(3-Oxo-3,4-dihydro-2H-benzo[1,4]thiazin-2-yl)-acetic acid hydrazide::CHEMBL34597

> <Target Name>
Peptide deformylase

> <Target Source Organism According to Curator or DataSource>
Staphylococcus aureus (strain Mu50 / ATCC 700699)

> <Ki (nM)>
nan

> <IC50 (nM)>
330

> <Kd (nM)>
nan

> <EC50 (nM)>
nan

> <kon (M-1-s-1)>
nan

> <koff (s-1)>
nan

> <pH>
nan

> <Temp C>
nan

> <Curation/DataSource>
ChEMBL

> <Article DOI>
10.1016/j.bmcl.2004.01.014

> <BindingDB Entry DOI>
10.7270/Q2MS3S6G

> <PMID>
15006385

> <PubChem AID>
<NA>

> <Patent Number>
nan

> <Authors>
Molteni, V; He, X; Nabakka, J; Yang, K; Kreusch, A; Gordon, P; Bursulaya, B; Warner, I; Shin, T; Biorac, T; Ryder, NS; Goldberg, R; Doughty, J; He, Y

> <Date of publication>
3/9/2004

> <Date in BindingDB>
11/10/2009

> <Institution>
Genomics Institute of the Novartis Research Foundation

> <Link to Ligand in BindingDB>
http://www.bindingdb.org/bind/chemsearch/marvin/MolStructure.jsp?monomerid=50141379

> <Link to Ligand-Target Pair in BindingDB>
http://www.bindingdb.org/jsp/dbsearch/PrimarySearch_ki.jsp?energyterm=kJ/mole&tag=r21&monomerid=50141379&enzyme=Peptide+deformylase&column=ki&startPg=0&Increment=50&submit=Search

> <Ligand HET ID in PDB>
<NA>

> <PDB ID(s) for Ligand-Target Complex>
<NA>

> <PubChem CID of Ligand>
3450026

> <PubChem SID of Ligand>
104030838

> <ChEBI ID of Ligand>
nan

> <ChEMBL ID of Ligand>
CHEMBL34597

> <DrugBank ID of Ligand>
<NA>

> <IUPHAR_GRAC ID of Ligand>
nan

> <KEGG ID of Ligand>
<NA>

> <ZINC ID of Ligand>
ZINC01393716

> <Number of Protein Chains in Target (bigger than 1 implies a multichain complex)>
1

> <BindingDB Target Chain Sequence>
MLTMKDIIRDGHPTLRQKAAELELPLTKEEKETLIAMREFLVNSQDEEIAKRYGLRSGVGLAAPQINISKRMIAVLIPDDGSGKSYDYMLVNPKIVSHSVQEAYLPTGEGCLSVDDNVAGLVHRHNRITIKAKDIEGNDIQLRLKGYPAIVFQHEIDHLNGVMFYDHIDKNHPLQPHTDAVEV

> <PDB ID(s) of Target Chain>
1LM4,1LMH,1LQW,2AI9,6JFG,6JFO,6JFQ,6JFR,6JFS

> <UniProt (SwissProt) Recommended Name of Target Chain>
Peptide deformylase

> <UniProt (SwissProt) Entry Name of Target Chain>
DEF_STAAU

> <UniProt (SwissProt) Primary ID of Target Chain>
P68826

> <UniProt (SwissProt) Secondary ID(s) of Target Chain>
Q9F4L4

> <UniProt (SwissProt) Alternative ID(s) of Target Chain>
nan

> <UniProt (TrEMBL) Submitted Name of Target Chain>
<NA>

> <UniProt (TrEMBL) Entry Name of Target Chain>
<NA>

> <UniProt (TrEMBL) Primary ID of Target Chain>
<NA>

> <UniProt (TrEMBL) Secondary ID(s) of Target Chain>
nan

> <UniProt (TrEMBL) Alternative ID(s) of Target Chain>
nan

> <pIC50>
-2.5185

> <Num_H_Donors_Lipinski>
4

> <Num_H_Acceptors_Lipinski>
5

> <Molecular_Weight>
237.27824

> <ALogP>
-0.077

> <Num_RotatableBonds>
2

> <Molecular_PolarSurfaceArea>
109.52

> <Num_H_Acceptors>
4

> <Num_H_Donors>
3

> <Num_Rings>
2

> <Num_AromaticRings>
1

> <Molecular_FractionalPolarSurfaceArea>
0.502

> <Activity_Bin>
3

> <PLSTempModel>
-2.71749961740063

> <PLSTempModel_Residuals>
0.198999617400632

$$$$
Untitled_235
  SciTegic11182514132D

 26 27  0  0  0  0            999 V2000
    1.2375  -16.6708    0.0000 C   0  0  2  0  0  0
    1.9520  -16.2583    0.0000 C   0  0
    0.5230  -16.2583    0.0000 C   0  0
   -0.1914  -16.6708    0.0000 N   0  0
    0.5230  -15.4333    0.0000 O   0  0
    2.6664  -16.6708    0.0000 N   0  0
    3.3809  -16.2583    0.0000 C   0  0
    2.6664  -17.4958    0.0000 O   0  0
    3.3809  -15.4333    0.0000 O   0  0
    1.2382  -17.4958    0.0000 C   0  0
    0.5632  -17.9707    0.0000 C   0  0
   -0.2195  -17.7033    0.0000 C   0  0
   -0.7143  -18.3634    0.0000 C   0  0
   -0.2394  -19.0381    0.0000 C   0  0
    0.5489  -18.7948    0.0000 C   0  0
   -0.9490  -16.3335    0.0000 C   0  0  1  0  0  0
   -1.5011  -16.9466    0.0000 C   0  0
   -1.0885  -17.6611    0.0000 C   0  0
   -0.2816  -17.4895    0.0000 C   0  0
   -1.1206  -15.5266    0.0000 C   0  0
   -0.5075  -14.9745    0.0000 O   0  0
   -1.9052  -15.2716    0.0000 N   0  0
   -2.0767  -14.4646    0.0000 C   0  0
   -1.4636  -13.9126    0.0000 O   0  0
   -2.8613  -14.2097    0.0000 O   0  0
   -3.0328  -13.4027    0.0000 C   0  0
  3  4  1  0
 12 13  1  0
 13 14  1  0
 14 15  1  0
 15 11  1  0
 16  4  1  0
  6  8  1  0
  7  9  2  0
  3  5  2  0
 16 17  1  0
 17 18  1  0
 18 19  1  0
 19  4  1  0
  1 10  1  1
 16 20  1  1
  1  3  1  0
 20 21  2  0
 10 11  1  0
 20 22  1  0
 11 12  1  0
 22 23  1  0
  2  6  1  0
 23 24  2  0
  1  2  1  0
 23 25  1  0
  6  7  1  0
 25 26  1  0
M  END
> <Name>
Untitled_235

> <OBJECTID>
9223372234426548235

> <From>
www.bindingDB.org

> <BindingDB Reactant_set_id>
50935642

> <Ligand InChI>
InChI=1S/C17H27N3O6/c1-26-17(24)18-15(22)14-7-4-8-20(14)16(23)13(10-19(25)11-21)9-12-5-2-3-6-12/h11-14,25H,2-10H2,1H3,(H,18,22,24)/t13-,14+/m1/s1

> <Ligand InChI Key>
LODHUVNBDRQVHZ-KGLIPLIRSA-N

> <BindingDB MonomerID>
50383983

> <BindingDB Ligand Name>
CHEMBL2032120

> <Target Name>
Peptide deformylase

> <Target Source Organism According to Curator or DataSource>
Streptococcus pneumoniae serotype 4 (strain ATCC BAA-334 / TIGR4)

> <Ki (nM)>
nan

> <IC50 (nM)>
1.9

> <Kd (nM)>
nan

> <EC50 (nM)>
nan

> <kon (M-1-s-1)>
nan

> <koff (s-1)>
nan

> <pH>
nan

> <Temp C>
nan

> <Curation/DataSource>
ChEMBL

> <Article DOI>
10.1016/j.bmcl.2012.04.086

> <BindingDB Entry DOI>
10.7270/Q2K64K3V

> <PMID>
22579486

> <PubChem AID>
<NA>

> <Patent Number>
nan

> <Authors>
Axten, JM; Medina, JR; Blackledge, CW; Duquenne, C; Grant, SW; Bobko, MA; Peng, T; Miller, WH; Pinckney, T; Gallagher, TF; Kulkarni, S; Lewandowski, T; Van Aller, GS; Zonis, R; Ward, P; Campobasso, N

> <Date of publication>
5/29/2012

> <Date in BindingDB>
2/7/2013

> <Institution>
GlaxoSmithKline

> <Link to Ligand in BindingDB>
http://www.bindingdb.org/bind/chemsearch/marvin/MolStructure.jsp?monomerid=50383983

> <Link to Ligand-Target Pair in BindingDB>
http://www.bindingdb.org/jsp/dbsearch/PrimarySearch_ki.jsp?energyterm=kJ/mole&tag=r21&monomerid=50383983&enzyme=Peptide+deformylase&column=ki&startPg=0&Increment=50&submit=Search

> <Ligand HET ID in PDB>
<NA>

> <PDB ID(s) for Ligand-Target Complex>
<NA>

> <PubChem CID of Ligand>
16036037

> <PubChem SID of Ligand>
160863066

> <ChEBI ID of Ligand>
nan

> <ChEMBL ID of Ligand>
CHEMBL2032120

> <DrugBank ID of Ligand>
<NA>

> <IUPHAR_GRAC ID of Ligand>
nan

> <KEGG ID of Ligand>
<NA>

> <ZINC ID of Ligand>
ZINC34874051

> <Number of Protein Chains in Target (bigger than 1 implies a multichain complex)>
1

> <BindingDB Target Chain Sequence>
MSAIERITKAAHLIDMNDIIREGNPTLRAIAEEVTFPLSDQEIILGEKMMQFLKHSQDPVMAEKMGLRGGVGLAAPQLDISKRIIAVLVPNIVEEGETPQEAYDLEAIMYNPKIVSHSVQDAALGEGEGCLSVDRNVPGYVVRHARVTVDYFDKDGEKHRIKLKGYNSIVVQHEIDHINGIMFYDRINEKDPFAVKDGLL
ILE

> <PDB ID(s) of Target Chain>
<NA>

> <UniProt (SwissProt) Recommended Name of Target Chain>
Peptide deformylase

> <UniProt (SwissProt) Entry Name of Target Chain>
DEF_STRPN

> <UniProt (SwissProt) Primary ID of Target Chain>
Q9F2F0

> <UniProt (SwissProt) Secondary ID(s) of Target Chain>
<NA>

> <UniProt (SwissProt) Alternative ID(s) of Target Chain>
nan

> <UniProt (TrEMBL) Submitted Name of Target Chain>
<NA>

> <UniProt (TrEMBL) Entry Name of Target Chain>
<NA>

> <UniProt (TrEMBL) Primary ID of Target Chain>
<NA>

> <UniProt (TrEMBL) Secondary ID(s) of Target Chain>
nan

> <UniProt (TrEMBL) Alternative ID(s) of Target Chain>
nan

> <pIC50>
-0.2788

> <Num_H_Donors_Lipinski>
2

> <Num_H_Acceptors_Lipinski>
9

> <Molecular_Weight>
369.41278

> <ALogP>
1.072

> <Num_RotatableBonds>
7

> <Molecular_PolarSurfaceArea>
116.25

> <Num_H_Acceptors>
6

> <Num_H_Donors>
2

> <Num_Rings>
2

> <Num_AromaticRings>
0

> <Molecular_FractionalPolarSurfaceArea>
0.319

> <Activity_Bin>
8

> <PLSTempModel>
-0.124491474264592

> <PLSTempModel_Residuals>
-0.154308525735408

$$$$
Untitled_531
  SciTegic11182514132D

 33 36  0  0  0  0            999 V2000
   30.0612  -15.4029    0.0000 N   0  0
   30.7710  -14.9980    0.0000 C   0  0
   31.4766  -15.4103    0.0000 C   0  0  2  0  0  0
   30.7753  -14.1808    0.0000 O   0  0
   29.3534  -14.9837    0.0000 C   0  0  1  0  0  0
   28.6456  -15.3851    0.0000 C   0  0
   28.6371  -16.2026    0.0000 C   0  0
   29.3425  -16.6171    0.0000 C   0  0
   30.0564  -16.2141    0.0000 N   0  0
   31.4722  -16.2275    0.0000 C   0  0
   32.1864  -15.0055    0.0000 C   0  0
   32.8920  -15.4178    0.0000 N   0  0
   33.6018  -15.0129    0.0000 C   0  0
   33.6061  -14.1958    0.0000 O   0  0
   32.8876  -16.2350    0.0000 O   0  0
   30.8882  -16.8019    0.0000 C   0  0
   30.0794  -16.6716    0.0000 C   0  0
   29.7015  -17.3984    0.0000 C   0  0
   30.2759  -17.9825    0.0000 C   0  0
   31.0089  -17.6166    0.0000 C   0  0
   29.3610  -14.1666    0.0000 C   0  0
   30.0725  -13.7646    0.0000 O   0  0
   28.6572  -13.7514    0.0000 N   0  0
   28.6648  -12.9342    0.0000 C   0  0
   28.6797  -11.3045    0.0000 C   0  0
   27.9658  -11.7108    0.0000 C   0  0
   27.9613  -12.5259    0.0000 C   0  0
   29.3841  -11.7205    0.0000 C   0  0
   29.3788  -12.5341    0.0000 C   0  0
   30.1510  -12.7905    0.0000 C   0  0
   30.6334  -12.1354    0.0000 O   0  0
   30.1594  -11.4742    0.0000 B   0  0
   30.4169  -10.6986    0.0000 O   0  0
  1  2  1  0
  2  3  1  0
  2  4  2  0
  1  5  1  0
  1  9  1  0
  5  6  1  0
  6  7  1  0
  7  8  1  0
  8  9  1  0
  3 10  1  1
  3 11  1  0
 11 12  1  0
 12 13  1  0
 13 14  2  0
 12 15  1  0
 10 16  1  0
 16 17  1  0
 17 18  1  0
 18 19  1  0
 19 20  1  0
 20 16  1  0
  5 21  1  1
 21 22  2  0
 21 23  1  0
 23 24  1  0
 24 29  2  0
 28 25  2  0
 25 26  1  0
 26 27  2  0
 27 24  1  0
 28 29  1  0
 29 30  1  0
 30 31  1  0
 31 32  1  0
 32 28  1  0
 32 33  1  0
M  END
> <Name>
Untitled_531

> <OBJECTID>
9223372397635305483

> <From>
www.bindingDB.org

> <BindingDB Reactant_set_id>
51323505

> <Ligand InChI>
InChI=1S/C22H31BN4O6/c28-14-26(32)12-16(11-15-5-1-2-6-15)22(30)27-20(9-4-10-24-27)21(29)25-19-8-3-7-18-17(19)13-33-23(18)31/h3,7-8,14-16,20,24,31-32H,1-2,4-6,9-13H2,(H,25,29)/t16-,20+/m1/s1

> <Ligand InChI Key>
FMILQEVQUWQKFN-UZLBHIALSA-N

> <BindingDB MonomerID>
50535517

> <BindingDB Ligand Name>
CHEMBL4474270

> <Target Name>
Peptide deformylase

> <Target Source Organism According to Curator or DataSource>
Staphylococcus aureus

> <Ki (nM)>
nan

> <IC50 (nM)>
158

> <Kd (nM)>
nan

> <EC50 (nM)>
nan

> <kon (M-1-s-1)>
nan

> <koff (s-1)>
nan

> <pH>
nan

> <Temp C>
nan

> <Curation/DataSource>
ChEMBL

> <Article DOI>
10.1016/j.bmcl.2019.05.028

> <BindingDB Entry DOI>
10.7270/Q2FF3WV7

> <PMID>
31160176

> <PubChem AID>
<NA>

> <Patent Number>
nan

> <Authors>
Spletstoser, JT; Dreabit, J; Knox, AN; Benowitz, A; Campobasso, N; Ward, P; Cui, G; Lewandowski, T; McCloskey, L; Aubart, KM

> <Date of publication>
8/15/2019

> <Date in BindingDB>
2/28/2021

> <Institution>
GlaxoSmithKline

> <Link to Ligand in BindingDB>
http://www.bindingdb.org/bind/chemsearch/marvin/MolStructure.jsp?monomerid=50535517

> <Link to Ligand-Target Pair in BindingDB>
http://www.bindingdb.org/jsp/dbsearch/PrimarySearch_ki.jsp?energyterm=kJ/mole&tag=r21&monomerid=50535517&enzyme=Peptide+deformylase&column=ki&startPg=0&Increment=50&submit=Search

> <Ligand HET ID in PDB>
<NA>

> <PDB ID(s) for Ligand-Target Complex>
<NA>

> <PubChem CID of Ligand>
155536889

> <PubChem SID of Ligand>
440744099

> <ChEBI ID of Ligand>
nan

> <ChEMBL ID of Ligand>
<NA>

> <DrugBank ID of Ligand>
<NA>

> <IUPHAR_GRAC ID of Ligand>
nan

> <KEGG ID of Ligand>
<NA>

> <ZINC ID of Ligand>
<NA>

> <Number of Protein Chains in Target (bigger than 1 implies a multichain complex)>
1

> <BindingDB Target Chain Sequence>
MLTMKDIIRD GHPTLRQKAA ELELPLTKEE KETLIAMREF LVNSQDEEIA
KRYGLRSGVG LAAPQINISK RMIAVLIPDD GSGKSYDYML VNPKIVSHSV
QEAYLPTGEG CLSVDDNVAG LVHRHNRITI KAKDIEGNDI QLRLKGYPAI
VFQHEIDHLN GVMFYDHIDK NHPLQPHTDA VEV

> <PDB ID(s) of Target Chain>
1LM4,1LMH,1LQW,2AI9,6JFG,6JFO,6JFQ,6JFR,6JFS

> <UniProt (SwissProt) Recommended Name of Target Chain>
Peptide deformylase

> <UniProt (SwissProt) Entry Name of Target Chain>
DEF_STAAM

> <UniProt (SwissProt) Primary ID of Target Chain>
P68825

> <UniProt (SwissProt) Secondary ID(s) of Target Chain>
Q9F4L4

> <UniProt (SwissProt) Alternative ID(s) of Target Chain>
nan

> <UniProt (TrEMBL) Submitted Name of Target Chain>
<NA>

> <UniProt (TrEMBL) Entry Name of Target Chain>
<NA>

> <UniProt (TrEMBL) Primary ID of Target Chain>
<NA>

> <UniProt (TrEMBL) Secondary ID(s) of Target Chain>
nan

> <UniProt (TrEMBL) Alternative ID(s) of Target Chain>
nan

> <pIC50>
-2.1987

> <Num_H_Donors_Lipinski>
4

> <Num_H_Acceptors_Lipinski>
10

> <Molecular_Weight>
458.31573

> <ALogP>
1.999

> <Num_RotatableBonds>
7

> <Molecular_PolarSurfaceArea>
131.44

> <Num_H_Acceptors>
7

> <Num_H_Donors>
4

> <Num_Rings>
4

> <Num_AromaticRings>
1

> <Molecular_FractionalPolarSurfaceArea>
0.301

> <Activity_Bin>
4

> <PLSTempModel>
-1.4543336860531

> <PLSTempModel_Residuals>
-0.744366313946901

$$$$
Untitled_72
  SciTegic11182514132D

 27 29  0  0  0  0            999 V2000
    2.8625   -3.5667    0.0000 C   0  0
    5.7042   -6.0500    0.0000 C   0  0
    5.7042   -6.8750    0.0000 C   0  0
    6.4250   -5.6417    0.0000 C   0  0
    4.9917   -5.6375    0.0000 N   0  0
    6.4167   -7.2917    0.0000 C   0  0
    2.8542   -4.4000    0.0000 C   0  0
    6.4292   -4.8167    0.0000 O   0  0
    3.5625   -4.8042    0.0000 C   0  0
    7.1375   -6.0542    0.0000 N   0  0
    2.1917   -3.0250    0.0000 F   0  0
    3.5292   -3.0292    0.0000 F   0  0
    2.8625   -2.8167    0.0000 F   0  0
    6.4167   -8.1167    0.0000 C   0  0
    4.2792   -6.0417    0.0000 C   0  0
    3.5625   -5.6250    0.0000 C   0  0
    7.8500   -5.6417    0.0000 N   0  0
    4.9875   -7.2875    0.0000 C   0  0
    2.1417   -4.8042    0.0000 C   0  0
    7.1292   -6.8792    0.0000 C   0  0
    4.9875   -8.1125    0.0000 C   0  0
    2.1417   -5.6292    0.0000 C   0  0
    5.7042   -8.5292    0.0000 C   0  0
    2.8542   -6.0375    0.0000 C   0  0
    7.1292   -8.5292    0.0000 C   0  0
    7.8417   -7.2917    0.0000 C   0  0
    7.8417   -8.1167    0.0000 C   0  0
  2  5  1  0
  3  2  1  0
  4  2  1  0
  5 15  1  0
  6  3  1  0
  7  1  1  0
  8  4  2  0
  9  7  2  0
 10  4  1  0
 11  1  1  0
 12  1  1  0
 13  1  1  0
 14  6  2  0
 15 16  1  0
 16  9  1  0
 17 10  1  0
 18  3  2  0
 19  7  1  0
 20  6  1  0
 21 18  1  0
 22 19  2  0
 23 21  2  0
 24 22  1  0
 25 14  1  0
 26 20  2  0
 27 26  1  0
 24 16  2  0
 23 14  1  0
 25 27  2  0
M  END
> <Name>
Untitled_72

> <OBJECTID>
9223372105577529355

> <From>
www.bindingDB.org

> <BindingDB Reactant_set_id>
50179867

> <Ligand InChI>
InChI=1S/C20H18F3N3O/c21-20(22,23)15-8-3-5-13(11-15)12-25-18(19(27)26-24)17-10-4-7-14-6-1-2-9-16(14)17/h1-11,18,25H,12,24H2,(H,26,27)

> <Ligand InChI Key>
CHWRKICHTXGKDX-UHFFFAOYSA-N

> <BindingDB MonomerID>
50099853

> <BindingDB Ligand Name>
CHEMBL26420::Naphthalen-1-yl-(3-trifluoromethyl-benzylamino)-acetic acid hydrazide

> <Target Name>
Peptide deformylase

> <Target Source Organism According to Curator or DataSource>
Staphylococcus aureus (strain Mu50 / ATCC 700699)

> <Ki (nM)>
nan

> <IC50 (nM)>
4100

> <Kd (nM)>
nan

> <EC50 (nM)>
nan

> <kon (M-1-s-1)>
nan

> <koff (s-1)>
nan

> <pH>
nan

> <Temp C>
nan

> <Curation/DataSource>
ChEMBL

> <Article DOI>
10.1016/s0960-894x(01)00242-6

> <BindingDB Entry DOI>
10.7270/Q2D50M7N

> <PMID>
11378353

> <PubChem AID>
<NA>

> <Patent Number>
nan

> <Authors>
Thorarensen, A; Deibel, MR; Rohrer, DC; Vosters, AF; Yem, AW; Marshall, VD; Lynn, JC; Bohanon, MJ; Tomich, PK; Zurenko, GE; Sweeney, MT; Jensen, RM; Nielsen, JW; Seest, EP; Dolak, LA

> <Date of publication>
5/29/2001

> <Date in BindingDB>
11/10/2009

> <Institution>
Pharmacia

> <Link to Ligand in BindingDB>
http://www.bindingdb.org/bind/chemsearch/marvin/MolStructure.jsp?monomerid=50099853

> <Link to Ligand-Target Pair in BindingDB>
http://www.bindingdb.org/jsp/dbsearch/PrimarySearch_ki.jsp?energyterm=kJ/mole&tag=r21&monomerid=50099853&enzyme=Peptide+deformylase&column=ki&startPg=0&Increment=50&submit=Search

> <Ligand HET ID in PDB>
<NA>

> <PDB ID(s) for Ligand-Target Complex>
<NA>

> <PubChem CID of Ligand>
44277015

> <PubChem SID of Ligand>
103996678

> <ChEBI ID of Ligand>
nan

> <ChEMBL ID of Ligand>
CHEMBL26420

> <DrugBank ID of Ligand>
<NA>

> <IUPHAR_GRAC ID of Ligand>
nan

> <KEGG ID of Ligand>
<NA>

> <ZINC ID of Ligand>
ZINC28765775

> <Number of Protein Chains in Target (bigger than 1 implies a multichain complex)>
1

> <BindingDB Target Chain Sequence>
MLTMKDIIRDGHPTLRQKAAELELPLTKEEKETLIAMREFLVNSQDEEIAKRYGLRSGVGLAAPQINISKRMIAVLIPDDGSGKSYDYMLVNPKIVSHSVQEAYLPTGEGCLSVDDNVAGLVHRHNRITIKAKDIEGNDIQLRLKGYPAIVFQHEIDHLNGVMFYDHIDKNHPLQPHTDAVEV

> <PDB ID(s) of Target Chain>
1LM4,1LMH,1LQW,2AI9,6JFG,6JFO,6JFQ,6JFR,6JFS

> <UniProt (SwissProt) Recommended Name of Target Chain>
Peptide deformylase

> <UniProt (SwissProt) Entry Name of Target Chain>
DEF_STAAU

> <UniProt (SwissProt) Primary ID of Target Chain>
P68826

> <UniProt (SwissProt) Secondary ID(s) of Target Chain>
Q9F4L4

> <UniProt (SwissProt) Alternative ID(s) of Target Chain>
nan

> <UniProt (TrEMBL) Submitted Name of Target Chain>
<NA>

> <UniProt (TrEMBL) Entry Name of Target Chain>
<NA>

> <UniProt (TrEMBL) Primary ID of Target Chain>
<NA>

> <UniProt (TrEMBL) Secondary ID(s) of Target Chain>
nan

> <UniProt (TrEMBL) Alternative ID(s) of Target Chain>
nan

> <pIC50>
-3.6128

> <Num_H_Donors_Lipinski>
4

> <Num_H_Acceptors_Lipinski>
4

> <Molecular_Weight>
373.37162

> <ALogP>
3.299

> <Num_RotatableBonds>
6

> <Molecular_PolarSurfaceArea>
67.15

> <Num_H_Acceptors>
3

> <Num_H_Donors>
3

> <Num_Rings>
3

> <Num_AromaticRings>
3

> <Molecular_FractionalPolarSurfaceArea>
0.199

> <Activity_Bin>
1

> <PLSTempModel>
-3.03925644558522

> <PLSTempModel_Residuals>
-0.573543554414779

$$$$
Untitled_225
  SciTegic11182514132D

 31 33  0  0  0  0            999 V2000
   27.0417  -23.5625    0.0000 C   0  0  2  0  0  0
   27.7561  -23.1500    0.0000 C   0  0
   26.3272  -23.1500    0.0000 C   0  0
   25.6127  -23.5625    0.0000 N   0  0
   26.3272  -22.3250    0.0000 O   0  0
   28.4706  -23.5625    0.0000 N   0  0
   29.1851  -23.1500    0.0000 C   0  0
   28.4706  -24.3875    0.0000 O   0  0
   29.1851  -22.3250    0.0000 O   0  0
   27.0423  -24.3874    0.0000 C   0  0
   26.3674  -24.8624    0.0000 C   0  0
   25.5847  -24.5950    0.0000 C   0  0
   25.0898  -25.2551    0.0000 C   0  0
   25.5647  -25.9298    0.0000 C   0  0
   26.3530  -25.6865    0.0000 C   0  0
   24.8551  -23.2252    0.0000 C   0  0  1  0  0  0
   24.3031  -23.8383    0.0000 C   0  0
   24.7156  -24.5528    0.0000 C   0  0
   25.5225  -24.3812    0.0000 C   0  0
   24.6836  -22.4182    0.0000 C   0  0
   25.2967  -21.8662    0.0000 O   0  0
   23.8990  -22.1633    0.0000 N   0  0
   23.7275  -21.3563    0.0000 C   0  0
   24.3406  -20.8043    0.0000 O   0  0
   22.9428  -21.1014    0.0000 O   0  0
   22.7713  -20.2944    0.0000 C   0  0
   23.3846  -19.7456    0.0000 C   0  0
   23.2157  -18.9417    0.0000 C   0  0
   22.4321  -18.6826    0.0000 N   0  0
   21.8170  -19.2338    0.0000 C   0  0
   21.9855  -20.0441    0.0000 C   0  0
 16  4  1  0
  6  8  1  0
  7  9  2  0
  3  5  2  0
 16 17  1  0
 17 18  1  0
 18 19  1  0
 19  4  1  0
  1 10  1  1
 16 20  1  1
  1  3  1  0
 20 21  2  0
 10 11  1  0
 20 22  1  0
 11 12  1  0
 22 23  1  0
  2  6  1  0
 23 24  2  0
  1  2  1  0
 23 25  1  0
  6  7  1  0
 25 26  1  0
 26 27  1  0
  3  4  1  0
 12 13  1  0
 13 14  1  0
 14 15  1  0
 15 11  1  0
 26 31  1  0
 27 28  1  0
 28 29  1  0
 29 30  1  0
 30 31  1  0
M  END
> <Name>
Untitled_225

> <OBJECTID>
9223372212951711755

> <From>
www.bindingDB.org

> <BindingDB Reactant_set_id>
50935650

> <Ligand InChI>
InChI=1S/C21H34N4O6/c26-14-24(30)13-16(12-15-4-1-2-5-15)20(28)25-11-3-6-18(25)19(27)23-21(29)31-17-7-9-22-10-8-17/h14-18,22,30H,1-13H2,(H,23,27,29)/t16-,18+/m1/s1

> <Ligand InChI Key>
ZKNKFCJQZHKUEL-AEFFLSMTSA-N

> <BindingDB MonomerID>
50383990

> <BindingDB Ligand Name>
CHEMBL2032128

> <Target Name>
Peptide deformylase

> <Target Source Organism According to Curator or DataSource>
Streptococcus pneumoniae serotype 4 (strain ATCC BAA-334 / TIGR4)

> <Ki (nM)>
nan

> <IC50 (nM)>
1.4

> <Kd (nM)>
nan

> <EC50 (nM)>
nan

> <kon (M-1-s-1)>
nan

> <koff (s-1)>
nan

> <pH>
nan

> <Temp C>
nan

> <Curation/DataSource>
ChEMBL

> <Article DOI>
10.1016/j.bmcl.2012.04.086

> <BindingDB Entry DOI>
10.7270/Q2K64K3V

> <PMID>
22579486

> <PubChem AID>
<NA>

> <Patent Number>
nan

> <Authors>
Axten, JM; Medina, JR; Blackledge, CW; Duquenne, C; Grant, SW; Bobko, MA; Peng, T; Miller, WH; Pinckney, T; Gallagher, TF; Kulkarni, S; Lewandowski, T; Van Aller, GS; Zonis, R; Ward, P; Campobasso, N

> <Date of publication>
5/29/2012

> <Date in BindingDB>
2/7/2013

> <Institution>
GlaxoSmithKline

> <Link to Ligand in BindingDB>
http://www.bindingdb.org/bind/chemsearch/marvin/MolStructure.jsp?monomerid=50383990

> <Link to Ligand-Target Pair in BindingDB>
http://www.bindingdb.org/jsp/dbsearch/PrimarySearch_ki.jsp?energyterm=kJ/mole&tag=r21&monomerid=50383990&enzyme=Peptide+deformylase&column=ki&startPg=0&Increment=50&submit=Search

> <Ligand HET ID in PDB>
<NA>

> <PDB ID(s) for Ligand-Target Complex>
<NA>

> <PubChem CID of Ligand>
70694300

> <PubChem SID of Ligand>
160863073

> <ChEBI ID of Ligand>
nan

> <ChEMBL ID of Ligand>
CHEMBL2032128

> <DrugBank ID of Ligand>
<NA>

> <IUPHAR_GRAC ID of Ligand>
nan

> <KEGG ID of Ligand>
<NA>

> <ZINC ID of Ligand>
ZINC84669778

> <Number of Protein Chains in Target (bigger than 1 implies a multichain complex)>
1

> <BindingDB Target Chain Sequence>
MSAIERITKAAHLIDMNDIIREGNPTLRAIAEEVTFPLSDQEIILGEKMMQFLKHSQDPVMAEKMGLRGGVGLAAPQLDISKRIIAVLVPNIVEEGETPQEAYDLEAIMYNPKIVSHSVQDAALGEGEGCLSVDRNVPGYVVRHARVTVDYFDKDGEKHRIKLKGYNSIVVQHEIDHINGIMFYDRINEKDPFAVKDGLL
ILE

> <PDB ID(s) of Target Chain>
<NA>

> <UniProt (SwissProt) Recommended Name of Target Chain>
Peptide deformylase

> <UniProt (SwissProt) Entry Name of Target Chain>
DEF_STRPN

> <UniProt (SwissProt) Primary ID of Target Chain>
Q9F2F0

> <UniProt (SwissProt) Secondary ID(s) of Target Chain>
<NA>

> <UniProt (SwissProt) Alternative ID(s) of Target Chain>
nan

> <UniProt (TrEMBL) Submitted Name of Target Chain>
<NA>

> <UniProt (TrEMBL) Entry Name of Target Chain>
<NA>

> <UniProt (TrEMBL) Primary ID of Target Chain>
<NA>

> <UniProt (TrEMBL) Secondary ID(s) of Target Chain>
nan

> <UniProt (TrEMBL) Alternative ID(s) of Target Chain>
nan

> <pIC50>
-0.1461

> <Num_H_Donors_Lipinski>
3

> <Num_H_Acceptors_Lipinski>
10

> <Molecular_Weight>
438.51786

> <ALogP>
0.647

> <Num_RotatableBonds>
8

> <Molecular_PolarSurfaceArea>
128.28

> <Num_H_Acceptors>
7

> <Num_H_Donors>
3

> <Num_Rings>
3

> <Num_AromaticRings>
0

> <Molecular_FractionalPolarSurfaceArea>
0.303

> <Activity_Bin>
8

> <PLSTempModel>
-6.97695627984585e-003

> <PLSTempModel_Residuals>
-0.139123043720154

$$$$
Untitled_190
  SciTegic11182514132D

 27 28  0  0  0  0            999 V2000
   11.6042   -0.8417    0.0000 C   0  0  2  0  0  0
   12.3186   -0.4292    0.0000 C   0  0
   10.8897   -0.4292    0.0000 C   0  0
   10.1752   -0.8417    0.0000 N   0  0
   10.8897    0.3958    0.0000 O   0  0
   13.0331   -0.8417    0.0000 N   0  0
   13.7476   -0.4292    0.0000 C   0  0
   13.0331   -1.6667    0.0000 O   0  0
   13.7476    0.3958    0.0000 O   0  0
   11.6048   -1.6666    0.0000 C   0  0
   10.9299   -2.1415    0.0000 C   0  0
   10.1472   -1.8742    0.0000 C   0  0
    9.6523   -2.5343    0.0000 C   0  0
   10.1272   -3.2090    0.0000 C   0  0
   10.9155   -2.9657    0.0000 C   0  0
    9.4176   -0.5044    0.0000 C   0  0  1  0  0  0
    8.8656   -1.1175    0.0000 C   0  0
    9.2781   -1.8320    0.0000 C   0  0
   10.0850   -1.6603    0.0000 C   0  0
    9.2461    0.3026    0.0000 C   0  0
    9.8592    0.8546    0.0000 O   0  0
    8.4615    0.5576    0.0000 N   0  0
    8.2900    1.3645    0.0000 C   0  0
    8.9031    1.9166    0.0000 O   0  0
    7.5053    1.6195    0.0000 N   0  0
    7.3338    2.4264    0.0000 C   0  0
    7.9469    2.9785    0.0000 C   0  0
 12 13  1  0
 13 14  1  0
 14 15  1  0
 15 11  1  0
 16  4  1  0
  6  8  1  0
  7  9  2  0
  3  5  2  0
 16 17  1  0
 17 18  1  0
 18 19  1  0
 19  4  1  0
  1 10  1  1
 16 20  1  1
  1  3  1  0
 20 21  2  0
 10 11  1  0
 20 22  1  0
 11 12  1  0
 22 23  1  0
  2  6  1  0
 23 24  2  0
  1  2  1  0
 23 25  1  0
  6  7  1  0
 25 26  1  0
  3  4  1  0
 26 27  1  0
M  END
> <Name>
Untitled_190

> <OBJECTID>
9223372118462431243

> <From>
www.bindingDB.org

> <BindingDB Reactant_set_id>
50935652

> <Ligand InChI>
InChI=1S/C18H30N4O5/c1-2-19-18(26)20-16(24)15-8-5-9-22(15)17(25)14(11-21(27)12-23)10-13-6-3-4-7-13/h12-15,27H,2-11H2,1H3,(H2,19,20,24,26)/t14-,15+/m1/s1

> <Ligand InChI Key>
ZLQDZVYXTLNPIJ-CABCVRRESA-N

> <BindingDB MonomerID>
50383992

> <BindingDB Ligand Name>
CHEMBL2032130

> <Target Name>
Peptide deformylase

> <Target Source Organism According to Curator or DataSource>
Streptococcus pneumoniae serotype 4 (strain ATCC BAA-334 / TIGR4)

> <Ki (nM)>
nan

> <IC50 (nM)>
0.44

> <Kd (nM)>
nan

> <EC50 (nM)>
nan

> <kon (M-1-s-1)>
nan

> <koff (s-1)>
nan

> <pH>
nan

> <Temp C>
nan

> <Curation/DataSource>
ChEMBL

> <Article DOI>
10.1016/j.bmcl.2012.04.086

> <BindingDB Entry DOI>
10.7270/Q2K64K3V

> <PMID>
22579486

> <PubChem AID>
<NA>

> <Patent Number>
nan

> <Authors>
Axten, JM; Medina, JR; Blackledge, CW; Duquenne, C; Grant, SW; Bobko, MA; Peng, T; Miller, WH; Pinckney, T; Gallagher, TF; Kulkarni, S; Lewandowski, T; Van Aller, GS; Zonis, R; Ward, P; Campobasso, N

> <Date of publication>
5/29/2012

> <Date in BindingDB>
2/7/2013

> <Institution>
GlaxoSmithKline

> <Link to Ligand in BindingDB>
http://www.bindingdb.org/bind/chemsearch/marvin/MolStructure.jsp?monomerid=50383992

> <Link to Ligand-Target Pair in BindingDB>
http://www.bindingdb.org/jsp/dbsearch/PrimarySearch_ki.jsp?energyterm=kJ/mole&tag=r21&monomerid=50383992&enzyme=Peptide+deformylase&column=ki&startPg=0&Increment=50&submit=Search

> <Ligand HET ID in PDB>
<NA>

> <PDB ID(s) for Ligand-Target Complex>
<NA>

> <PubChem CID of Ligand>
16036659

> <PubChem SID of Ligand>
160863075

> <ChEBI ID of Ligand>
nan

> <ChEMBL ID of Ligand>
CHEMBL2032130

> <DrugBank ID of Ligand>
<NA>

> <IUPHAR_GRAC ID of Ligand>
nan

> <KEGG ID of Ligand>
<NA>

> <ZINC ID of Ligand>
ZINC34874568

> <Number of Protein Chains in Target (bigger than 1 implies a multichain complex)>
1

> <BindingDB Target Chain Sequence>
MSAIERITKAAHLIDMNDIIREGNPTLRAIAEEVTFPLSDQEIILGEKMMQFLKHSQDPVMAEKMGLRGGVGLAAPQLDISKRIIAVLVPNIVEEGETPQEAYDLEAIMYNPKIVSHSVQDAALGEGEGCLSVDRNVPGYVVRHARVTVDYFDKDGEKHRIKLKGYNSIVVQHEIDHINGIMFYDRINEKDPFAVKDGLL
ILE

> <PDB ID(s) of Target Chain>
<NA>

> <UniProt (SwissProt) Recommended Name of Target Chain>
Peptide deformylase

> <UniProt (SwissProt) Entry Name of Target Chain>
DEF_STRPN

> <UniProt (SwissProt) Primary ID of Target Chain>
Q9F2F0

> <UniProt (SwissProt) Secondary ID(s) of Target Chain>
<NA>

> <UniProt (SwissProt) Alternative ID(s) of Target Chain>
nan

> <UniProt (TrEMBL) Submitted Name of Target Chain>
<NA>

> <UniProt (TrEMBL) Entry Name of Target Chain>
<NA>

> <UniProt (TrEMBL) Primary ID of Target Chain>
<NA>

> <UniProt (TrEMBL) Secondary ID(s) of Target Chain>
nan

> <UniProt (TrEMBL) Alternative ID(s) of Target Chain>
nan

> <pIC50>
0.3565

> <Num_H_Donors_Lipinski>
3

> <Num_H_Acceptors_Lipinski>
9

> <Molecular_Weight>
382.4546

> <ALogP>
0.774

> <Num_RotatableBonds>
7

> <Molecular_PolarSurfaceArea>
119.05

> <Num_H_Acceptors>
5

> <Num_H_Donors>
3

> <Num_Rings>
2

> <Num_AromaticRings>
0

> <Molecular_FractionalPolarSurfaceArea>
0.312

> <Activity_Bin>
9

> <PLSTempModel>
0.392345355957859

> <PLSTempModel_Residuals>
-3.58453559578589e-002

$$$$
Untitled_191
  SciTegic11182514132D

 26 27  0  0  0  0            999 V2000
    4.8000   -1.1833    0.0000 C   0  0  2  0  0  0
    5.5145   -0.7708    0.0000 C   0  0
    4.0855   -0.7708    0.0000 C   0  0
    3.3711   -1.1833    0.0000 N   0  0
    4.0855    0.0542    0.0000 O   0  0
    6.2289   -1.1833    0.0000 N   0  0
    6.9434   -0.7708    0.0000 C   0  0
    6.2289   -2.0083    0.0000 O   0  0
    6.9434    0.0542    0.0000 O   0  0
    4.8007   -2.0083    0.0000 C   0  0
    4.1257   -2.4832    0.0000 C   0  0
    3.3430   -2.2158    0.0000 C   0  0
    2.8482   -2.8760    0.0000 C   0  0
    3.3231   -3.5506    0.0000 C   0  0
    4.1114   -3.3073    0.0000 C   0  0
    2.6135   -0.8460    0.0000 C   0  0  1  0  0  0
    2.0614   -1.4591    0.0000 C   0  0
    2.4740   -2.1736    0.0000 C   0  0
    3.2809   -2.0020    0.0000 C   0  0
    2.4419   -0.0391    0.0000 C   0  0
    3.0550    0.5130    0.0000 O   0  0
    1.6573    0.2159    0.0000 N   0  0
    1.4858    1.0229    0.0000 C   0  0
    2.0989    1.5749    0.0000 O   0  0
    0.7012    1.2778    0.0000 N   0  0
    0.5297    2.0848    0.0000 C   0  0
  3  4  1  0
 12 13  1  0
 13 14  1  0
 14 15  1  0
 15 11  1  0
 16  4  1  0
  6  8  1  0
  7  9  2  0
  3  5  2  0
 16 17  1  0
 17 18  1  0
 18 19  1  0
 19  4  1  0
  1 10  1  1
 16 20  1  1
  1  3  1  0
 20 21  2  0
 10 11  1  0
 20 22  1  0
 11 12  1  0
 22 23  1  0
  2  6  1  0
 23 24  2  0
  1  2  1  0
 23 25  1  0
  6  7  1  0
 25 26  1  0
M  END
> <Name>
Untitled_191

> <OBJECTID>
9223372122757398539

> <From>
www.bindingDB.org

> <BindingDB Reactant_set_id>
50935623

> <Ligand InChI>
InChI=1S/C17H28N4O5/c1-18-17(25)19-15(23)14-7-4-8-21(14)16(24)13(10-20(26)11-22)9-12-5-2-3-6-12/h11-14,26H,2-10H2,1H3,(H2,18,19,23,25)/t13-,14+/m1/s1

> <Ligand InChI Key>
FKASFJRIJJXSSO-KGLIPLIRSA-N

> <BindingDB MonomerID>
50383965

> <BindingDB Ligand Name>
CHEMBL2032129

> <Target Name>
Peptide deformylase

> <Target Source Organism According to Curator or DataSource>
Streptococcus pneumoniae serotype 4 (strain ATCC BAA-334 / TIGR4)

> <Ki (nM)>
nan

> <IC50 (nM)>
0.46

> <Kd (nM)>
nan

> <EC50 (nM)>
nan

> <kon (M-1-s-1)>
nan

> <koff (s-1)>
nan

> <pH>
nan

> <Temp C>
nan

> <Curation/DataSource>
ChEMBL

> <Article DOI>
10.1016/j.bmcl.2012.04.086

> <BindingDB Entry DOI>
10.7270/Q2K64K3V

> <PMID>
22579486

> <PubChem AID>
<NA>

> <Patent Number>
nan

> <Authors>
Axten, JM; Medina, JR; Blackledge, CW; Duquenne, C; Grant, SW; Bobko, MA; Peng, T; Miller, WH; Pinckney, T; Gallagher, TF; Kulkarni, S; Lewandowski, T; Van Aller, GS; Zonis, R; Ward, P; Campobasso, N

> <Date of publication>
5/29/2012

> <Date in BindingDB>
2/7/2013

> <Institution>
GlaxoSmithKline

> <Link to Ligand in BindingDB>
http://www.bindingdb.org/bind/chemsearch/marvin/MolStructure.jsp?monomerid=50383965

> <Link to Ligand-Target Pair in BindingDB>
http://www.bindingdb.org/jsp/dbsearch/PrimarySearch_ki.jsp?energyterm=kJ/mole&tag=r21&monomerid=50383965&enzyme=Peptide+deformylase&column=ki&startPg=0&Increment=50&submit=Search

> <Ligand HET ID in PDB>
<NA>

> <PDB ID(s) for Ligand-Target Complex>
<NA>

> <PubChem CID of Ligand>
16035085

> <PubChem SID of Ligand>
160863048

> <ChEBI ID of Ligand>
nan

> <ChEMBL ID of Ligand>
CHEMBL2032129

> <DrugBank ID of Ligand>
<NA>

> <IUPHAR_GRAC ID of Ligand>
nan

> <KEGG ID of Ligand>
<NA>

> <ZINC ID of Ligand>
ZINC34873085

> <Number of Protein Chains in Target (bigger than 1 implies a multichain complex)>
1

> <BindingDB Target Chain Sequence>
MSAIERITKAAHLIDMNDIIREGNPTLRAIAEEVTFPLSDQEIILGEKMMQFLKHSQDPVMAEKMGLRGGVGLAAPQLDISKRIIAVLVPNIVEEGETPQEAYDLEAIMYNPKIVSHSVQDAALGEGEGCLSVDRNVPGYVVRHARVTVDYFDKDGEKHRIKLKGYNSIVVQHEIDHINGIMFYDRINEKDPFAVKDGLL
ILE

> <PDB ID(s) of Target Chain>
<NA>

> <UniProt (SwissProt) Recommended Name of Target Chain>
Peptide deformylase

> <UniProt (SwissProt) Entry Name of Target Chain>
DEF_STRPN

> <UniProt (SwissProt) Primary ID of Target Chain>
Q9F2F0

> <UniProt (SwissProt) Secondary ID(s) of Target Chain>
<NA>

> <UniProt (SwissProt) Alternative ID(s) of Target Chain>
nan

> <UniProt (TrEMBL) Submitted Name of Target Chain>
<NA>

> <UniProt (TrEMBL) Entry Name of Target Chain>
<NA>

> <UniProt (TrEMBL) Primary ID of Target Chain>
<NA>

> <UniProt (TrEMBL) Secondary ID(s) of Target Chain>
nan

> <UniProt (TrEMBL) Alternative ID(s) of Target Chain>
nan

> <pIC50>
0.3372

> <Num_H_Donors_Lipinski>
3

> <Num_H_Acceptors_Lipinski>
9

> <Molecular_Weight>
368.42802

> <ALogP>
0.425

> <Num_RotatableBonds>
6

> <Molecular_PolarSurfaceArea>
119.05

> <Num_H_Acceptors>
5

> <Num_H_Donors>
3

> <Num_Rings>
2

> <Num_AromaticRings>
0

> <Molecular_FractionalPolarSurfaceArea>
0.325

> <Activity_Bin>
9

> <PLSTempModel>
0.377430043897564

> <PLSTempModel_Residuals>
-4.02300438975643e-002

$$$$
Untitled_198
  SciTegic11182514132D

 27 28  0  0  0  0            999 V2000
    9.3083  -16.4125    0.0000 C   0  0  2  0  0  0
   10.0228  -16.0000    0.0000 C   0  0
    8.5939  -16.0000    0.0000 C   0  0
    7.8794  -16.4125    0.0000 N   0  0
    8.5939  -15.1750    0.0000 O   0  0
   10.7373  -16.4125    0.0000 N   0  0
   11.4517  -16.0000    0.0000 C   0  0
   10.7373  -17.2375    0.0000 O   0  0
   11.4517  -15.1750    0.0000 O   0  0
    9.3090  -17.2374    0.0000 C   0  0
    8.6341  -17.7124    0.0000 C   0  0
    7.8514  -17.4450    0.0000 C   0  0
    7.3565  -18.1051    0.0000 C   0  0
    7.8314  -18.7798    0.0000 C   0  0
    8.6197  -18.5365    0.0000 C   0  0
    7.1218  -16.0752    0.0000 C   0  0  1  0  0  0
    6.5698  -16.6883    0.0000 C   0  0
    6.9823  -17.4028    0.0000 C   0  0
    7.7892  -17.2312    0.0000 C   0  0
    6.9503  -15.2682    0.0000 C   0  0
    7.5634  -14.7162    0.0000 O   0  0
    6.1657  -15.0133    0.0000 N   0  0
    5.9941  -14.2063    0.0000 C   0  0
    6.6072  -13.6543    0.0000 O   0  0
    5.2095  -13.9514    0.0000 O   0  0
    5.0380  -13.1444    0.0000 C   0  0
    5.6511  -12.5924    0.0000 C   0  0
 12 13  1  0
 13 14  1  0
 14 15  1  0
 15 11  1  0
 16  4  1  0
  6  8  1  0
  7  9  2  0
  3  5  2  0
 16 17  1  0
 17 18  1  0
 18 19  1  0
 19  4  1  0
  1 10  1  1
 16 20  1  1
  1  3  1  0
 20 21  2  0
 10 11  1  0
 20 22  1  0
 11 12  1  0
 22 23  1  0
  2  6  1  0
 23 24  2  0
  1  2  1  0
 23 25  1  0
  6  7  1  0
 25 26  1  0
  3  4  1  0
 26 27  1  0
M  END
> <Name>
Untitled_198

> <OBJECTID>
9223372144232235019

> <From>
www.bindingDB.org

> <BindingDB Reactant_set_id>
50935643

> <Ligand InChI>
InChI=1S/C18H29N3O6/c1-2-27-18(25)19-16(23)15-8-5-9-21(15)17(24)14(11-20(26)12-22)10-13-6-3-4-7-13/h12-15,26H,2-11H2,1H3,(H,19,23,25)/t14-,15+/m1/s1

> <Ligand InChI Key>
JXTFRDOBEZTWPJ-CABCVRRESA-N

> <BindingDB MonomerID>
50383984

> <BindingDB Ligand Name>
CHEMBL2032121

> <Target Name>
Peptide deformylase

> <Target Source Organism According to Curator or DataSource>
Streptococcus pneumoniae serotype 4 (strain ATCC BAA-334 / TIGR4)

> <Ki (nM)>
nan

> <IC50 (nM)>
0.54

> <Kd (nM)>
nan

> <EC50 (nM)>
nan

> <kon (M-1-s-1)>
nan

> <koff (s-1)>
nan

> <pH>
nan

> <Temp C>
nan

> <Curation/DataSource>
ChEMBL

> <Article DOI>
10.1016/j.bmcl.2012.04.086

> <BindingDB Entry DOI>
10.7270/Q2K64K3V

> <PMID>
22579486

> <PubChem AID>
<NA>

> <Patent Number>
nan

> <Authors>
Axten, JM; Medina, JR; Blackledge, CW; Duquenne, C; Grant, SW; Bobko, MA; Peng, T; Miller, WH; Pinckney, T; Gallagher, TF; Kulkarni, S; Lewandowski, T; Van Aller, GS; Zonis, R; Ward, P; Campobasso, N

> <Date of publication>
5/29/2012

> <Date in BindingDB>
2/7/2013

> <Institution>
GlaxoSmithKline

> <Link to Ligand in BindingDB>
http://www.bindingdb.org/bind/chemsearch/marvin/MolStructure.jsp?monomerid=50383984

> <Link to Ligand-Target Pair in BindingDB>
http://www.bindingdb.org/jsp/dbsearch/PrimarySearch_ki.jsp?energyterm=kJ/mole&tag=r21&monomerid=50383984&enzyme=Peptide+deformylase&column=ki&startPg=0&Increment=50&submit=Search

> <Ligand HET ID in PDB>
<NA>

> <PDB ID(s) for Ligand-Target Complex>
<NA>

> <PubChem CID of Ligand>
16036156

> <PubChem SID of Ligand>
160863067

> <ChEBI ID of Ligand>
nan

> <ChEMBL ID of Ligand>
CHEMBL2032121

> <DrugBank ID of Ligand>
<NA>

> <IUPHAR_GRAC ID of Ligand>
nan

> <KEGG ID of Ligand>
<NA>

> <ZINC ID of Ligand>
ZINC34874145

> <Number of Protein Chains in Target (bigger than 1 implies a multichain complex)>
1

> <BindingDB Target Chain Sequence>
MSAIERITKAAHLIDMNDIIREGNPTLRAIAEEVTFPLSDQEIILGEKMMQFLKHSQDPVMAEKMGLRGGVGLAAPQLDISKRIIAVLVPNIVEEGETPQEAYDLEAIMYNPKIVSHSVQDAALGEGEGCLSVDRNVPGYVVRHARVTVDYFDKDGEKHRIKLKGYNSIVVQHEIDHINGIMFYDRINEKDPFAVKDGLL
ILE

> <PDB ID(s) of Target Chain>
<NA>

> <UniProt (SwissProt) Recommended Name of Target Chain>
Peptide deformylase

> <UniProt (SwissProt) Entry Name of Target Chain>
DEF_STRPN

> <UniProt (SwissProt) Primary ID of Target Chain>
Q9F2F0

> <UniProt (SwissProt) Secondary ID(s) of Target Chain>
<NA>

> <UniProt (SwissProt) Alternative ID(s) of Target Chain>
nan

> <UniProt (TrEMBL) Submitted Name of Target Chain>
<NA>

> <UniProt (TrEMBL) Entry Name of Target Chain>
<NA>

> <UniProt (TrEMBL) Primary ID of Target Chain>
<NA>

> <UniProt (TrEMBL) Secondary ID(s) of Target Chain>
nan

> <UniProt (TrEMBL) Alternative ID(s) of Target Chain>
nan

> <pIC50>
0.2676

> <Num_H_Donors_Lipinski>
2

> <Num_H_Acceptors_Lipinski>
9

> <Molecular_Weight>
383.43936

> <ALogP>
1.421

> <Num_RotatableBonds>
8

> <Molecular_PolarSurfaceArea>
116.25

> <Num_H_Acceptors>
6

> <Num_H_Donors>
2

> <Num_Rings>
2

> <Num_AromaticRings>
0

> <Molecular_FractionalPolarSurfaceArea>
0.306

> <Activity_Bin>
9

> <PLSTempModel>
-6.46579775183435e-002

> <PLSTempModel_Residuals>
0.332257977518343

$$$$
Untitled_207
  SciTegic11182514132D

 29 31  0  0  0  0            999 V2000
   34.8083   -0.5500    0.0000 C   0  0  2  0  0  0
   35.5228   -0.1375    0.0000 C   0  0
   34.0939   -0.1375    0.0000 C   0  0
   33.3794   -0.5500    0.0000 N   0  0
   34.0939    0.6875    0.0000 O   0  0
   36.2373   -0.5500    0.0000 N   0  0
   36.9517   -0.1375    0.0000 C   0  0
   36.2373   -1.3750    0.0000 O   0  0
   36.9517    0.6875    0.0000 O   0  0
   34.8090   -1.3749    0.0000 C   0  0
   34.1341   -1.8499    0.0000 C   0  0
   33.3514   -1.5825    0.0000 C   0  0
   32.8565   -2.2426    0.0000 C   0  0
   33.3314   -2.9173    0.0000 C   0  0
   34.1197   -2.6740    0.0000 C   0  0
   32.6218   -0.2127    0.0000 C   0  0  1  0  0  0
   32.0698   -0.8258    0.0000 C   0  0
   32.4823   -1.5403    0.0000 C   0  0
   33.2892   -1.3687    0.0000 C   0  0
   32.4503    0.5943    0.0000 C   0  0
   33.0634    1.1463    0.0000 O   0  0
   31.6657    0.8492    0.0000 N   0  0
   31.4941    1.6562    0.0000 C   0  0
   32.1072    2.2082    0.0000 O   0  0
   30.7095    1.9111    0.0000 N   0  0
   30.5380    2.7181    0.0000 C   0  0
   30.9886    3.4110    0.0000 C   0  0
   30.2967    3.8603    0.0000 C   0  0
   29.8474    3.1684    0.0000 C   0  0
 14 15  1  0
 15 11  1  0
 16  4  1  0
  6  8  1  0
  7  9  2  0
  3  5  2  0
 16 17  1  0
 17 18  1  0
 18 19  1  0
 19  4  1  0
  1 10  1  1
 16 20  1  1
  1  3  1  0
 20 21  2  0
 10 11  1  0
 20 22  1  0
 11 12  1  0
 22 23  1  0
  2  6  1  0
 23 24  2  0
  1  2  1  0
 23 25  1  0
  6  7  1  0
 25 26  1  0
 26 27  1  0
  3  4  1  0
 12 13  1  0
 13 14  1  0
 27 28  1  0
 28 29  1  0
 29 26  1  0
M  END
> <Name>
Untitled_207

> <OBJECTID>
9223372178591973387

> <From>
www.bindingDB.org

> <BindingDB Reactant_set_id>
50935693

> <Ligand InChI>
InChI=1S/C20H32N4O5/c25-13-23(29)12-15(11-14-5-1-2-6-14)19(27)24-10-4-9-17(24)18(26)22-20(28)21-16-7-3-8-16/h13-17,29H,1-12H2,(H2,21,22,26,28)/t15-,17+/m1/s1

> <Ligand InChI Key>
FXZWALGNZVUFDE-WBVHZDCISA-N

> <BindingDB MonomerID>
50383995

> <BindingDB Ligand Name>
CHEMBL2032133

> <Target Name>
Peptide deformylase

> <Target Source Organism According to Curator or DataSource>
Staphylococcus aureus

> <Ki (nM)>
nan

> <IC50 (nM)>
0.9

> <Kd (nM)>
nan

> <EC50 (nM)>
nan

> <kon (M-1-s-1)>
nan

> <koff (s-1)>
nan

> <pH>
nan

> <Temp C>
nan

> <Curation/DataSource>
ChEMBL

> <Article DOI>
10.1016/j.bmcl.2012.04.086

> <BindingDB Entry DOI>
10.7270/Q2K64K3V

> <PMID>
22579486

> <PubChem AID>
<NA>

> <Patent Number>
nan

> <Authors>
Axten, JM; Medina, JR; Blackledge, CW; Duquenne, C; Grant, SW; Bobko, MA; Peng, T; Miller, WH; Pinckney, T; Gallagher, TF; Kulkarni, S; Lewandowski, T; Van Aller, GS; Zonis, R; Ward, P; Campobasso, N

> <Date of publication>
5/29/2012

> <Date in BindingDB>
2/7/2013

> <Institution>
GlaxoSmithKline

> <Link to Ligand in BindingDB>
http://www.bindingdb.org/bind/chemsearch/marvin/MolStructure.jsp?monomerid=50383995

> <Link to Ligand-Target Pair in BindingDB>
http://www.bindingdb.org/jsp/dbsearch/PrimarySearch_ki.jsp?energyterm=kJ/mole&tag=r21&monomerid=50383995&enzyme=Peptide+deformylase&column=ki&startPg=0&Increment=50&submit=Search

> <Ligand HET ID in PDB>
<NA>

> <PDB ID(s) for Ligand-Target Complex>
<NA>

> <PubChem CID of Ligand>
57878129

> <PubChem SID of Ligand>
160863078

> <ChEBI ID of Ligand>
nan

> <ChEMBL ID of Ligand>
CHEMBL2032133

> <DrugBank ID of Ligand>
<NA>

> <IUPHAR_GRAC ID of Ligand>
nan

> <KEGG ID of Ligand>
<NA>

> <ZINC ID of Ligand>
ZINC84758877

> <Number of Protein Chains in Target (bigger than 1 implies a multichain complex)>
1

> <BindingDB Target Chain Sequence>
MLTMKDIIRD GHPTLRQKAA ELELPLTKEE KETLIAMREF LVNSQDEEIA
KRYGLRSGVG LAAPQINISK RMIAVLIPDD GSGKSYDYML VNPKIVSHSV
QEAYLPTGEG CLSVDDNVAG LVHRHNRITI KAKDIEGNDI QLRLKGYPAI
VFQHEIDHLN GVMFYDHIDK NHPLQPHTDA VEV

> <PDB ID(s) of Target Chain>
1LM4,1LMH,1LQW,2AI9,6JFG,6JFO,6JFQ,6JFR,6JFS

> <UniProt (SwissProt) Recommended Name of Target Chain>
Peptide deformylase

> <UniProt (SwissProt) Entry Name of Target Chain>
DEF_STAAM

> <UniProt (SwissProt) Primary ID of Target Chain>
P68825

> <UniProt (SwissProt) Secondary ID(s) of Target Chain>
Q9F4L4

> <UniProt (SwissProt) Alternative ID(s) of Target Chain>
nan

> <UniProt (TrEMBL) Submitted Name of Target Chain>
<NA>

> <UniProt (TrEMBL) Entry Name of Target Chain>
<NA>

> <UniProt (TrEMBL) Primary ID of Target Chain>
<NA>

> <UniProt (TrEMBL) Secondary ID(s) of Target Chain>
nan

> <UniProt (TrEMBL) Alternative ID(s) of Target Chain>
nan

> <pIC50>
0.0458

> <Num_H_Donors_Lipinski>
3

> <Num_H_Acceptors_Lipinski>
9

> <Molecular_Weight>
408.49188

> <ALogP>
1.371

> <Num_RotatableBonds>
7

> <Molecular_PolarSurfaceArea>
119.05

> <Num_H_Acceptors>
5

> <Num_H_Donors>
3

> <Num_Rings>
3

> <Num_AromaticRings>
0

> <Molecular_FractionalPolarSurfaceArea>
0.302

> <Activity_Bin>
8

> <PLSTempModel>
0.504704653327438

> <PLSTempModel_Residuals>
-0.458904653327438

$$$$
Untitled_392
  SciTegic11182514132D

 30 32  0  0  0  0            999 V2000
    6.0366  -13.8263    0.0000 N   0  0
    6.7464  -13.4214    0.0000 C   0  0
    7.4520  -13.8337    0.0000 C   0  0  2  0  0  0
    6.7507  -12.6042    0.0000 O   0  0
    5.3288  -13.4071    0.0000 C   0  0  1  0  0  0
    4.6210  -13.8085    0.0000 C   0  0
    4.6125  -14.6260    0.0000 C   0  0
    5.3179  -15.0405    0.0000 C   0  0
    6.0318  -14.6375    0.0000 N   0  0
    7.4476  -14.6509    0.0000 C   0  0
    8.1618  -13.4289    0.0000 C   0  0
    8.8674  -13.8412    0.0000 N   0  0
    9.5772  -13.4363    0.0000 C   0  0
    9.5815  -12.6192    0.0000 O   0  0
    8.8630  -14.6584    0.0000 O   0  0
    6.8636  -15.2253    0.0000 C   0  0
    6.0548  -15.0950    0.0000 C   0  0
    5.6769  -15.8218    0.0000 C   0  0
    6.2513  -16.4059    0.0000 C   0  0
    6.9843  -16.0399    0.0000 C   0  0
    5.3364  -12.5900    0.0000 C   0  0
    6.0479  -12.1880    0.0000 O   0  0
    4.6326  -12.1748    0.0000 N   0  0
    4.6402  -11.3576    0.0000 C   0  0
    5.3515  -10.9603    0.0000 N   0  0
    5.3595  -10.1439    0.0000 C   0  0
    4.6551   -9.7279    0.0000 C   0  0
    3.9412  -10.1342    0.0000 C   0  0
    3.9367  -10.9493    0.0000 C   0  0
    3.9211  -12.5767    0.0000 C   0  0
  1  2  1  0
  2  3  1  0
  2  4  2  0
  1  5  1  0
  1  9  1  0
  5  6  1  0
  6  7  1  0
  7  8  1  0
  8  9  1  0
  3 10  1  1
  3 11  1  0
 11 12  1  0
 12 13  1  0
 13 14  2  0
 12 15  1  0
 10 16  1  0
 16 17  1  0
 17 18  1  0
 18 19  1  0
 19 20  1  0
 20 16  1  0
  5 21  1  1
 21 22  2  0
 21 23  1  0
 23 24  1  0
 24 25  2  0
 25 26  1  0
 26 27  2  0
 27 28  1  0
 28 29  2  0
 29 24  1  0
 23 30  1  0
M  END
> <Name>
Untitled_392

> <OBJECTID>
9223372337505763339

> <From>
www.bindingDB.org

> <BindingDB Reactant_set_id>
51323498

> <Ligand InChI>
InChI=1S/C21H31N5O4/c1-24(19-10-4-5-11-22-19)21(29)18-9-6-12-23-26(18)20(28)17(14-25(30)15-27)13-16-7-2-3-8-16/h4-5,10-11,15-18,23,30H,2-3,6-9,12-14H2,1H3/t17-,18+/m1/s1

> <Ligand InChI Key>
GRUPNIKEBQWHIV-MSOLQXFVSA-N

> <BindingDB MonomerID>
50535510

> <BindingDB Ligand Name>
CHEMBL4471518

> <Target Name>
Peptide deformylase

> <Target Source Organism According to Curator or DataSource>
Staphylococcus aureus

> <Ki (nM)>
nan

> <IC50 (nM)>
18

> <Kd (nM)>
nan

> <EC50 (nM)>
nan

> <kon (M-1-s-1)>
nan

> <koff (s-1)>
nan

> <pH>
nan

> <Temp C>
nan

> <Curation/DataSource>
ChEMBL

> <Article DOI>
10.1016/j.bmcl.2019.05.028

> <BindingDB Entry DOI>
10.7270/Q2FF3WV7

> <PMID>
31160176

> <PubChem AID>
<NA>

> <Patent Number>
nan

> <Authors>
Spletstoser, JT; Dreabit, J; Knox, AN; Benowitz, A; Campobasso, N; Ward, P; Cui, G; Lewandowski, T; McCloskey, L; Aubart, KM

> <Date of publication>
8/15/2019

> <Date in BindingDB>
2/28/2021

> <Institution>
GlaxoSmithKline

> <Link to Ligand in BindingDB>
http://www.bindingdb.org/bind/chemsearch/marvin/MolStructure.jsp?monomerid=50535510

> <Link to Ligand-Target Pair in BindingDB>
http://www.bindingdb.org/jsp/dbsearch/PrimarySearch_ki.jsp?energyterm=kJ/mole&tag=r21&monomerid=50535510&enzyme=Peptide+deformylase&column=ki&startPg=0&Increment=50&submit=Search

> <Ligand HET ID in PDB>
<NA>

> <PDB ID(s) for Ligand-Target Complex>
<NA>

> <PubChem CID of Ligand>
155535353

> <PubChem SID of Ligand>
440744092

> <ChEBI ID of Ligand>
nan

> <ChEMBL ID of Ligand>
<NA>

> <DrugBank ID of Ligand>
<NA>

> <IUPHAR_GRAC ID of Ligand>
nan

> <KEGG ID of Ligand>
<NA>

> <ZINC ID of Ligand>
<NA>

> <Number of Protein Chains in Target (bigger than 1 implies a multichain complex)>
1

> <BindingDB Target Chain Sequence>
MLTMKDIIRD GHPTLRQKAA ELELPLTKEE KETLIAMREF LVNSQDEEIA
KRYGLRSGVG LAAPQINISK RMIAVLIPDD GSGKSYDYML VNPKIVSHSV
QEAYLPTGEG CLSVDDNVAG LVHRHNRITI KAKDIEGNDI QLRLKGYPAI
VFQHEIDHLN GVMFYDHIDK NHPLQPHTDA VEV

> <PDB ID(s) of Target Chain>
1LM4,1LMH,1LQW,2AI9,6JFG,6JFO,6JFQ,6JFR,6JFS

> <UniProt (SwissProt) Recommended Name of Target Chain>
Peptide deformylase

> <UniProt (SwissProt) Entry Name of Target Chain>
DEF_STAAM

> <UniProt (SwissProt) Primary ID of Target Chain>
P68825

> <UniProt (SwissProt) Secondary ID(s) of Target Chain>
Q9F4L4

> <UniProt (SwissProt) Alternative ID(s) of Target Chain>
nan

> <UniProt (TrEMBL) Submitted Name of Target Chain>
<NA>

> <UniProt (TrEMBL) Entry Name of Target Chain>
<NA>

> <UniProt (TrEMBL) Primary ID of Target Chain>
<NA>

> <UniProt (TrEMBL) Secondary ID(s) of Target Chain>
nan

> <UniProt (TrEMBL) Alternative ID(s) of Target Chain>
nan

> <pIC50>
-1.2553

> <Num_H_Donors_Lipinski>
2

> <Num_H_Acceptors_Lipinski>
9

> <Molecular_Weight>
417.50194

> <ALogP>
1.324

> <Num_RotatableBonds>
7

> <Molecular_PolarSurfaceArea>
106.08

> <Num_H_Acceptors>
6

> <Num_H_Donors>
2

> <Num_Rings>
3

> <Num_AromaticRings>
1

> <Molecular_FractionalPolarSurfaceArea>
0.258

> <Activity_Bin>
6

> <PLSTempModel>
-1.46047109814684

> <PLSTempModel_Residuals>
0.205171098146836

$$$$
Untitled_230
  SciTegic11182514132D

 27 28  0  0  0  0            999 V2000
   18.3833   -0.7125    0.0000 C   0  0  2  0  0  0
   19.0978   -0.3000    0.0000 C   0  0
   17.6689   -0.3000    0.0000 C   0  0
   16.9544   -0.7125    0.0000 N   0  0
   17.6689    0.5250    0.0000 O   0  0
   19.8123   -0.7125    0.0000 N   0  0
   20.5267   -0.3000    0.0000 C   0  0
   19.8123   -1.5375    0.0000 O   0  0
   20.5267    0.5250    0.0000 O   0  0
   18.3840   -1.5374    0.0000 C   0  0
   17.7091   -2.0124    0.0000 C   0  0
   16.9264   -1.7450    0.0000 C   0  0
   16.4315   -2.4051    0.0000 C   0  0
   16.9064   -3.0798    0.0000 C   0  0
   17.6947   -2.8365    0.0000 C   0  0
   16.1968   -0.3752    0.0000 C   0  0  1  0  0  0
   15.6448   -0.9883    0.0000 C   0  0
   16.0573   -1.7028    0.0000 C   0  0
   16.8642   -1.5312    0.0000 C   0  0
   16.0253    0.4318    0.0000 C   0  0
   16.6384    0.9838    0.0000 O   0  0
   15.2407    0.6867    0.0000 N   0  0
   15.0691    1.4937    0.0000 C   0  0
   14.2845    1.7486    0.0000 C   0  0
   15.6822    2.0457    0.0000 O   0  0
   14.1130    2.5556    0.0000 C   0  0
   13.6714    1.1966    0.0000 C   0  0
 12 13  1  0
 13 14  1  0
 14 15  1  0
 15 11  1  0
 16  4  1  0
  6  8  1  0
  7  9  2  0
  3  5  2  0
 16 17  1  0
 17 18  1  0
 18 19  1  0
 19  4  1  0
  1 10  1  1
 16 20  1  1
  1  3  1  0
 20 21  2  0
 10 11  1  0
 20 22  1  0
 11 12  1  0
 22 23  1  0
  2  6  1  0
 23 24  1  0
  1  2  1  0
 23 25  2  0
  6  7  1  0
 24 26  1  0
  3  4  1  0
 24 27  1  0
M  END
> <Name>
Untitled_230

> <OBJECTID>
9223372217246679051

> <From>
www.bindingDB.org

> <BindingDB Reactant_set_id>
50935634

> <Ligand InChI>
InChI=1S/C19H31N3O5/c1-13(2)17(24)20-18(25)16-8-5-9-22(16)19(26)15(11-21(27)12-23)10-14-6-3-4-7-14/h12-16,27H,3-11H2,1-2H3,(H,20,24,25)/t15-,16+/m1/s1

> <Ligand InChI Key>
UONJQZXZLFFHJH-CVEARBPZSA-N

> <BindingDB MonomerID>
50383975

> <BindingDB Ligand Name>
CHEMBL2032112

> <Target Name>
Peptide deformylase

> <Target Source Organism According to Curator or DataSource>
Streptococcus pneumoniae serotype 4 (strain ATCC BAA-334 / TIGR4)

> <Ki (nM)>
nan

> <IC50 (nM)>
1.5

> <Kd (nM)>
nan

> <EC50 (nM)>
nan

> <kon (M-1-s-1)>
nan

> <koff (s-1)>
nan

> <pH>
nan

> <Temp C>
nan

> <Curation/DataSource>
ChEMBL

> <Article DOI>
10.1016/j.bmcl.2012.04.086

> <BindingDB Entry DOI>
10.7270/Q2K64K3V

> <PMID>
22579486

> <PubChem AID>
<NA>

> <Patent Number>
nan

> <Authors>
Axten, JM; Medina, JR; Blackledge, CW; Duquenne, C; Grant, SW; Bobko, MA; Peng, T; Miller, WH; Pinckney, T; Gallagher, TF; Kulkarni, S; Lewandowski, T; Van Aller, GS; Zonis, R; Ward, P; Campobasso, N

> <Date of publication>
5/29/2012

> <Date in BindingDB>
2/7/2013

> <Institution>
GlaxoSmithKline

> <Link to Ligand in BindingDB>
http://www.bindingdb.org/bind/chemsearch/marvin/MolStructure.jsp?monomerid=50383975

> <Link to Ligand-Target Pair in BindingDB>
http://www.bindingdb.org/jsp/dbsearch/PrimarySearch_ki.jsp?energyterm=kJ/mole&tag=r21&monomerid=50383975&enzyme=Peptide+deformylase&column=ki&startPg=0&Increment=50&submit=Search

> <Ligand HET ID in PDB>
<NA>

> <PDB ID(s) for Ligand-Target Complex>
<NA>

> <PubChem CID of Ligand>
16036656

> <PubChem SID of Ligand>
160863058

> <ChEBI ID of Ligand>
nan

> <ChEMBL ID of Ligand>
CHEMBL2032112

> <DrugBank ID of Ligand>
<NA>

> <IUPHAR_GRAC ID of Ligand>
nan

> <KEGG ID of Ligand>
<NA>

> <ZINC ID of Ligand>
ZINC34874565

> <Number of Protein Chains in Target (bigger than 1 implies a multichain complex)>
1

> <BindingDB Target Chain Sequence>
MSAIERITKAAHLIDMNDIIREGNPTLRAIAEEVTFPLSDQEIILGEKMMQFLKHSQDPVMAEKMGLRGGVGLAAPQLDISKRIIAVLVPNIVEEGETPQEAYDLEAIMYNPKIVSHSVQDAALGEGEGCLSVDRNVPGYVVRHARVTVDYFDKDGEKHRIKLKGYNSIVVQHEIDHINGIMFYDRINEKDPFAVKDGLL
ILE

> <PDB ID(s) of Target Chain>
<NA>

> <UniProt (SwissProt) Recommended Name of Target Chain>
Peptide deformylase

> <UniProt (SwissProt) Entry Name of Target Chain>
DEF_STRPN

> <UniProt (SwissProt) Primary ID of Target Chain>
Q9F2F0

> <UniProt (SwissProt) Secondary ID(s) of Target Chain>
<NA>

> <UniProt (SwissProt) Alternative ID(s) of Target Chain>
nan

> <UniProt (TrEMBL) Submitted Name of Target Chain>
<NA>

> <UniProt (TrEMBL) Entry Name of Target Chain>
<NA>

> <UniProt (TrEMBL) Primary ID of Target Chain>
<NA>

> <UniProt (TrEMBL) Secondary ID(s) of Target Chain>
nan

> <UniProt (TrEMBL) Alternative ID(s) of Target Chain>
nan

> <pIC50>
-0.1761

> <Num_H_Donors_Lipinski>
2

> <Num_H_Acceptors_Lipinski>
8

> <Molecular_Weight>
381.46654

> <ALogP>
1.558

> <Num_RotatableBonds>
7

> <Molecular_PolarSurfaceArea>
107.02

> <Num_H_Acceptors>
5

> <Num_H_Donors>
2

> <Num_Rings>
2

> <Num_AromaticRings>
0

> <Molecular_FractionalPolarSurfaceArea>
0.278

> <Activity_Bin>
8

> <PLSTempModel>
-0.240342619608212

> <PLSTempModel_Residuals>
6.42426196082123e-002

$$$$
Untitled_206
  SciTegic11182514132D

 33 35  0  0  0  0            999 V2000
   26.1125   -8.1667    0.0000 C   0  0  2  0  0  0
   26.8270   -7.7542    0.0000 C   0  0
   25.3980   -7.7542    0.0000 C   0  0
   24.6836   -8.1667    0.0000 N   0  0
   25.3980   -6.9292    0.0000 O   0  0
   27.5414   -8.1667    0.0000 N   0  0
   28.2559   -7.7542    0.0000 C   0  0
   27.5414   -8.9917    0.0000 O   0  0
   28.2559   -6.9292    0.0000 O   0  0
   26.1132   -8.9916    0.0000 C   0  0
   25.4382   -9.4665    0.0000 C   0  0
   24.6555   -9.1992    0.0000 C   0  0
   24.1607   -9.8593    0.0000 C   0  0
   24.6356  -10.5340    0.0000 C   0  0
   25.4239  -10.2907    0.0000 C   0  0
   23.9260   -7.8294    0.0000 C   0  0  1  0  0  0
   23.3739   -8.4425    0.0000 C   0  0
   23.7865   -9.1570    0.0000 C   0  0
   24.5934   -8.9853    0.0000 C   0  0
   23.7544   -7.0224    0.0000 C   0  0
   24.3675   -6.4704    0.0000 O   0  0
   22.9698   -6.7674    0.0000 N   0  0
   22.7983   -5.9605    0.0000 C   0  0
   23.4114   -5.4084    0.0000 O   0  0
   22.0137   -5.7055    0.0000 N   0  0
   21.8422   -4.8986    0.0000 C   0  0
   22.4552   -4.3465    0.0000 C   0  0
   22.2837   -3.5396    0.0000 C   0  0
   22.8982   -2.9905    0.0000 C   0  0
   22.7272   -2.1842    0.0000 C   0  0
   21.9419   -1.9286    0.0000 C   0  0
   21.3274   -2.4855    0.0000 C   0  0
   21.5016   -3.2897    0.0000 C   0  0
  7  9  2  0
  3  5  2  0
 16 17  1  0
 17 18  1  0
 18 19  1  0
 19  4  1  0
  1 10  1  1
 16 20  1  1
  1  3  1  0
 20 21  2  0
 10 11  1  0
 20 22  1  0
 11 12  1  0
 22 23  1  0
  2  6  1  0
 23 24  2  0
  1  2  1  0
 23 25  1  0
  6  7  1  0
 25 26  1  0
  3  4  1  0
 26 27  1  0
 12 13  1  0
 27 28  1  0
 13 14  1  0
 28 29  2  0
 14 15  1  0
 29 30  1  0
 15 11  1  0
 30 31  2  0
 16  4  1  0
 31 32  1  0
  6  8  1  0
 32 33  2  0
 33 28  1  0
M  END
> <Name>
Untitled_206

> <OBJECTID>
9223372174297006091

> <From>
www.bindingDB.org

> <BindingDB Reactant_set_id>
50935697

> <Ligand InChI>
InChI=1S/C24H34N4O5/c29-17-27(33)16-20(15-19-9-4-5-10-19)23(31)28-14-6-11-21(28)22(30)26-24(32)25-13-12-18-7-2-1-3-8-18/h1-3,7-8,17,19-21,33H,4-6,9-16H2,(H2,25,26,30,32)/t20-,21+/m1/s1

> <Ligand InChI Key>
KLBNIMBVLSGXDC-RTWAWAEBSA-N

> <BindingDB MonomerID>
50383999

> <BindingDB Ligand Name>
CHEMBL2032137

> <Target Name>
Peptide deformylase

> <Target Source Organism According to Curator or DataSource>
Staphylococcus aureus

> <Ki (nM)>
nan

> <IC50 (nM)>
0.86

> <Kd (nM)>
nan

> <EC50 (nM)>
nan

> <kon (M-1-s-1)>
nan

> <koff (s-1)>
nan

> <pH>
nan

> <Temp C>
nan

> <Curation/DataSource>
ChEMBL

> <Article DOI>
10.1016/j.bmcl.2012.04.086

> <BindingDB Entry DOI>
10.7270/Q2K64K3V

> <PMID>
22579486

> <PubChem AID>
<NA>

> <Patent Number>
nan

> <Authors>
Axten, JM; Medina, JR; Blackledge, CW; Duquenne, C; Grant, SW; Bobko, MA; Peng, T; Miller, WH; Pinckney, T; Gallagher, TF; Kulkarni, S; Lewandowski, T; Van Aller, GS; Zonis, R; Ward, P; Campobasso, N

> <Date of publication>
5/29/2012

> <Date in BindingDB>
2/7/2013

> <Institution>
GlaxoSmithKline

> <Link to Ligand in BindingDB>
http://www.bindingdb.org/bind/chemsearch/marvin/MolStructure.jsp?monomerid=50383999

> <Link to Ligand-Target Pair in BindingDB>
http://www.bindingdb.org/jsp/dbsearch/PrimarySearch_ki.jsp?energyterm=kJ/mole&tag=r21&monomerid=50383999&enzyme=Peptide+deformylase&column=ki&startPg=0&Increment=50&submit=Search

> <Ligand HET ID in PDB>
<NA>

> <PDB ID(s) for Ligand-Target Complex>
<NA>

> <PubChem CID of Ligand>
57878141

> <PubChem SID of Ligand>
160863082

> <ChEBI ID of Ligand>
nan

> <ChEMBL ID of Ligand>
CHEMBL2032137

> <DrugBank ID of Ligand>
<NA>

> <IUPHAR_GRAC ID of Ligand>
nan

> <KEGG ID of Ligand>
<NA>

> <ZINC ID of Ligand>
ZINC84654165

> <Number of Protein Chains in Target (bigger than 1 implies a multichain complex)>
1

> <BindingDB Target Chain Sequence>
MLTMKDIIRD GHPTLRQKAA ELELPLTKEE KETLIAMREF LVNSQDEEIA
KRYGLRSGVG LAAPQINISK RMIAVLIPDD GSGKSYDYML VNPKIVSHSV
QEAYLPTGEG CLSVDDNVAG LVHRHNRITI KAKDIEGNDI QLRLKGYPAI
VFQHEIDHLN GVMFYDHIDK NHPLQPHTDA VEV

> <PDB ID(s) of Target Chain>
1LM4,1LMH,1LQW,2AI9,6JFG,6JFO,6JFQ,6JFR,6JFS

> <UniProt (SwissProt) Recommended Name of Target Chain>
Peptide deformylase

> <UniProt (SwissProt) Entry Name of Target Chain>
DEF_STAAM

> <UniProt (SwissProt) Primary ID of Target Chain>
P68825

> <UniProt (SwissProt) Secondary ID(s) of Target Chain>
Q9F4L4

> <UniProt (SwissProt) Alternative ID(s) of Target Chain>
nan

> <UniProt (TrEMBL) Submitted Name of Target Chain>
<NA>

> <UniProt (TrEMBL) Entry Name of Target Chain>
<NA>

> <UniProt (TrEMBL) Primary ID of Target Chain>
<NA>

> <UniProt (TrEMBL) Secondary ID(s) of Target Chain>
nan

> <UniProt (TrEMBL) Alternative ID(s) of Target Chain>
nan

> <pIC50>
0.0655

> <Num_H_Donors_Lipinski>
3

> <Num_H_Acceptors_Lipinski>
9

> <Molecular_Weight>
458.55056

> <ALogP>
2.329

> <Num_RotatableBonds>
9

> <Molecular_PolarSurfaceArea>
119.05

> <Num_H_Acceptors>
5

> <Num_H_Donors>
3

> <Num_Rings>
3

> <Num_AromaticRings>
1

> <Molecular_FractionalPolarSurfaceArea>
0.265

> <Activity_Bin>
8

> <PLSTempModel>
0.287216127847796

> <PLSTempModel_Residuals>
-0.221716127847796

$$$$
Untitled_507
  SciTegic11182514132D

 17 18  0  0  0  0            999 V2000
   -1.8583   -2.5167    0.0000 N   0  0
   -1.1458   -2.1000    0.0000 C   0  0
   -1.8625   -0.8542    0.0000 S   0  0
   -1.1458   -1.2667    0.0000 C   0  0
   -0.4333   -0.8542    0.0000 C   0  0
   -2.5708   -2.1042    0.0000 C   0  0
   -2.5750   -1.2792    0.0000 C   0  0
    0.2792   -1.2667    0.0000 C   0  0
   -0.4250   -2.5125    0.0000 O   0  0
    0.2875   -2.0917    0.0000 O   0  0
    0.9917   -0.8542    0.0000 N   0  0
    1.7125   -1.2625    0.0000 O   0  0
   -3.2958   -2.5167    0.0000 C   0  0
   -3.2958   -0.8667    0.0000 C   0  0
    2.4250   -0.8417    0.0000 C   0  0
   -4.0083   -2.1042    0.0000 C   0  0
   -4.0083   -1.2792    0.0000 C   0  0
  2  1  1  0
  3  7  1  0
  4  2  1  0
  5  4  1  0
  6  1  1  0
  7  6  2  0
  8  5  1  0
  9  2  2  0
 10  8  2  0
 11  8  1  0
 12 11  1  0
 13  6  1  0
 14  7  1  0
 15 12  1  0
 16 13  2  0
 17 16  1  0
  3  4  1  0
 17 14  2  0
M  END
> <Name>
Untitled_507

> <OBJECTID>
9223372393340338187

> <From>
www.bindingDB.org

> <BindingDB Reactant_set_id>
50259725

> <Ligand InChI>
InChI=1S/C11H12N2O3S/c1-16-13-10(14)6-9-11(15)12-7-4-2-3-5-8(7)17-9/h2-5,9H,6H2,1H3,(H,12,15)(H,13,14)

> <Ligand InChI Key>
OQWRFCAQZSOIIF-UHFFFAOYSA-N

> <BindingDB MonomerID>
50141368

> <BindingDB Ligand Name>
CHEMBL38164::N-Methoxy-2-(3-oxo-3,4-dihydro-2H-benzo[1,4]thiazin-2-yl)-acetamide

> <Target Name>
Peptide deformylase

> <Target Source Organism According to Curator or DataSource>
Staphylococcus aureus (strain Mu50 / ATCC 700699)

> <Ki (nM)>
nan

> <IC50 (nM)>
74

> <Kd (nM)>
nan

> <EC50 (nM)>
nan

> <kon (M-1-s-1)>
nan

> <koff (s-1)>
nan

> <pH>
nan

> <Temp C>
nan

> <Curation/DataSource>
ChEMBL

> <Article DOI>
10.1016/j.bmcl.2004.01.014

> <BindingDB Entry DOI>
10.7270/Q2MS3S6G

> <PMID>
15006385

> <PubChem AID>
<NA>

> <Patent Number>
nan

> <Authors>
Molteni, V; He, X; Nabakka, J; Yang, K; Kreusch, A; Gordon, P; Bursulaya, B; Warner, I; Shin, T; Biorac, T; Ryder, NS; Goldberg, R; Doughty, J; He, Y

> <Date of publication>
3/9/2004

> <Date in BindingDB>
11/10/2009

> <Institution>
Genomics Institute of the Novartis Research Foundation

> <Link to Ligand in BindingDB>
http://www.bindingdb.org/bind/chemsearch/marvin/MolStructure.jsp?monomerid=50141368

> <Link to Ligand-Target Pair in BindingDB>
http://www.bindingdb.org/jsp/dbsearch/PrimarySearch_ki.jsp?energyterm=kJ/mole&tag=r21&monomerid=50141368&enzyme=Peptide+deformylase&column=ki&startPg=0&Increment=50&submit=Search

> <Ligand HET ID in PDB>
<NA>

> <PDB ID(s) for Ligand-Target Complex>
<NA>

> <PubChem CID of Ligand>
11345758

> <PubChem SID of Ligand>
104030827

> <ChEBI ID of Ligand>
nan

> <ChEMBL ID of Ligand>
CHEMBL38164

> <DrugBank ID of Ligand>
<NA>

> <IUPHAR_GRAC ID of Ligand>
nan

> <KEGG ID of Ligand>
<NA>

> <ZINC ID of Ligand>
ZINC29311781

> <Number of Protein Chains in Target (bigger than 1 implies a multichain complex)>
1

> <BindingDB Target Chain Sequence>
MLTMKDIIRDGHPTLRQKAAELELPLTKEEKETLIAMREFLVNSQDEEIAKRYGLRSGVGLAAPQINISKRMIAVLIPDDGSGKSYDYMLVNPKIVSHSVQEAYLPTGEGCLSVDDNVAGLVHRHNRITIKAKDIEGNDIQLRLKGYPAIVFQHEIDHLNGVMFYDHIDKNHPLQPHTDAVEV

> <PDB ID(s) of Target Chain>
1LM4,1LMH,1LQW,2AI9,6JFG,6JFO,6JFQ,6JFR,6JFS

> <UniProt (SwissProt) Recommended Name of Target Chain>
Peptide deformylase

> <UniProt (SwissProt) Entry Name of Target Chain>
DEF_STAAU

> <UniProt (SwissProt) Primary ID of Target Chain>
P68826

> <UniProt (SwissProt) Secondary ID(s) of Target Chain>
Q9F4L4

> <UniProt (SwissProt) Alternative ID(s) of Target Chain>
nan

> <UniProt (TrEMBL) Submitted Name of Target Chain>
<NA>

> <UniProt (TrEMBL) Entry Name of Target Chain>
<NA>

> <UniProt (TrEMBL) Primary ID of Target Chain>
<NA>

> <UniProt (TrEMBL) Secondary ID(s) of Target Chain>
nan

> <UniProt (TrEMBL) Alternative ID(s) of Target Chain>
nan

> <pIC50>
-1.8692

> <Num_H_Donors_Lipinski>
2

> <Num_H_Acceptors_Lipinski>
5

> <Molecular_Weight>
252.28957

> <ALogP>
0.467

> <Num_RotatableBonds>
3

> <Molecular_PolarSurfaceArea>
92.73

> <Num_H_Acceptors>
4

> <Num_H_Donors>
2

> <Num_Rings>
2

> <Num_AromaticRings>
1

> <Molecular_FractionalPolarSurfaceArea>
0.401

> <Activity_Bin>
4

> <PLSTempModel>
-2.05783669211428

> <PLSTempModel_Residuals>
0.188636692114276

$$$$
Untitled_285
  SciTegic11182514132D

 31 33  0  0  0  0            999 V2000
   18.0583  -24.1917    0.0000 C   0  0  2  0  0  0
   18.7728  -23.7792    0.0000 C   0  0
   17.3439  -23.7792    0.0000 C   0  0
   16.6294  -24.1917    0.0000 N   0  0
   17.3439  -22.9542    0.0000 O   0  0
   19.4873  -24.1917    0.0000 N   0  0
   20.2017  -23.7792    0.0000 C   0  0
   19.4873  -25.0167    0.0000 O   0  0
   20.2017  -22.9542    0.0000 O   0  0
   18.0590  -25.0166    0.0000 C   0  0
   17.3841  -25.4915    0.0000 C   0  0
   16.6014  -25.2242    0.0000 C   0  0
   16.1065  -25.8843    0.0000 C   0  0
   16.5814  -26.5590    0.0000 C   0  0
   17.3697  -26.3157    0.0000 C   0  0
   15.8718  -23.8544    0.0000 C   0  0  1  0  0  0
   15.3198  -24.4675    0.0000 C   0  0
   15.7323  -25.1820    0.0000 C   0  0
   16.5392  -25.0103    0.0000 C   0  0
   15.7003  -23.0474    0.0000 C   0  0
   16.3134  -22.4954    0.0000 O   0  0
   14.9157  -22.7924    0.0000 N   0  0
   14.7441  -21.9855    0.0000 C   0  0
   15.3572  -21.4334    0.0000 O   0  0
   13.9595  -21.7305    0.0000 O   0  0
   13.7880  -20.9236    0.0000 C   0  0
   14.4012  -20.3748    0.0000 C   0  0
   14.2324  -19.5709    0.0000 C   0  0
   13.4488  -19.3118    0.0000 O   0  0
   12.8336  -19.8630    0.0000 C   0  0
   13.0021  -20.6733    0.0000 C   0  0
 16  4  1  0
  6  8  1  0
  7  9  2  0
  3  5  2  0
 16 17  1  0
 17 18  1  0
 18 19  1  0
 19  4  1  0
  1 10  1  1
 16 20  1  1
  1  3  1  0
 20 21  2  0
 10 11  1  0
 20 22  1  0
 11 12  1  0
 22 23  1  0
  2  6  1  0
 23 24  2  0
  1  2  1  0
 23 25  1  0
  6  7  1  0
 25 26  1  0
 26 27  1  0
  3  4  1  0
 12 13  1  0
 13 14  1  0
 14 15  1  0
 15 11  1  0
 26 31  1  0
 27 28  1  0
 28 29  1  0
 29 30  1  0
 30 31  1  0
M  END
> <Name>
Untitled_285

> <OBJECTID>
9223372290261123083

> <From>
www.bindingDB.org

> <BindingDB Reactant_set_id>
50935686

> <Ligand InChI>
InChI=1S/C21H33N3O7/c25-14-23(29)13-16(12-15-4-1-2-5-15)20(27)24-9-3-6-18(24)19(26)22-21(28)31-17-7-10-30-11-8-17/h14-18,29H,1-13H2,(H,22,26,28)/t16-,18+/m1/s1

> <Ligand InChI Key>
RHWCOKRHWWCNNY-AEFFLSMTSA-N

> <BindingDB MonomerID>
50383989

> <BindingDB Ligand Name>
CHEMBL2032127

> <Target Name>
Peptide deformylase

> <Target Source Organism According to Curator or DataSource>
Staphylococcus aureus

> <Ki (nM)>
nan

> <IC50 (nM)>
4.4

> <Kd (nM)>
nan

> <EC50 (nM)>
nan

> <kon (M-1-s-1)>
nan

> <koff (s-1)>
nan

> <pH>
nan

> <Temp C>
nan

> <Curation/DataSource>
ChEMBL

> <Article DOI>
10.1016/j.bmcl.2012.04.086

> <BindingDB Entry DOI>
10.7270/Q2K64K3V

> <PMID>
22579486

> <PubChem AID>
<NA>

> <Patent Number>
nan

> <Authors>
Axten, JM; Medina, JR; Blackledge, CW; Duquenne, C; Grant, SW; Bobko, MA; Peng, T; Miller, WH; Pinckney, T; Gallagher, TF; Kulkarni, S; Lewandowski, T; Van Aller, GS; Zonis, R; Ward, P; Campobasso, N

> <Date of publication>
5/29/2012

> <Date in BindingDB>
2/7/2013

> <Institution>
GlaxoSmithKline

> <Link to Ligand in BindingDB>
http://www.bindingdb.org/bind/chemsearch/marvin/MolStructure.jsp?monomerid=50383989

> <Link to Ligand-Target Pair in BindingDB>
http://www.bindingdb.org/jsp/dbsearch/PrimarySearch_ki.jsp?energyterm=kJ/mole&tag=r21&monomerid=50383989&enzyme=Peptide+deformylase&column=ki&startPg=0&Increment=50&submit=Search

> <Ligand HET ID in PDB>
<NA>

> <PDB ID(s) for Ligand-Target Complex>
<NA>

> <PubChem CID of Ligand>
16036157

> <PubChem SID of Ligand>
160863072

> <ChEBI ID of Ligand>
nan

> <ChEMBL ID of Ligand>
CHEMBL2032127

> <DrugBank ID of Ligand>
<NA>

> <IUPHAR_GRAC ID of Ligand>
nan

> <KEGG ID of Ligand>
<NA>

> <ZINC ID of Ligand>
ZINC34874146

> <Number of Protein Chains in Target (bigger than 1 implies a multichain complex)>
1

> <BindingDB Target Chain Sequence>
MLTMKDIIRD GHPTLRQKAA ELELPLTKEE KETLIAMREF LVNSQDEEIA
KRYGLRSGVG LAAPQINISK RMIAVLIPDD GSGKSYDYML VNPKIVSHSV
QEAYLPTGEG CLSVDDNVAG LVHRHNRITI KAKDIEGNDI QLRLKGYPAI
VFQHEIDHLN GVMFYDHIDK NHPLQPHTDA VEV

> <PDB ID(s) of Target Chain>
1LM4,1LMH,1LQW,2AI9,6JFG,6JFO,6JFQ,6JFR,6JFS

> <UniProt (SwissProt) Recommended Name of Target Chain>
Peptide deformylase

> <UniProt (SwissProt) Entry Name of Target Chain>
DEF_STAAM

> <UniProt (SwissProt) Primary ID of Target Chain>
P68825

> <UniProt (SwissProt) Secondary ID(s) of Target Chain>
Q9F4L4

> <UniProt (SwissProt) Alternative ID(s) of Target Chain>
nan

> <UniProt (TrEMBL) Submitted Name of Target Chain>
<NA>

> <UniProt (TrEMBL) Entry Name of Target Chain>
<NA>

> <UniProt (TrEMBL) Primary ID of Target Chain>
<NA>

> <UniProt (TrEMBL) Secondary ID(s) of Target Chain>
nan

> <UniProt (TrEMBL) Alternative ID(s) of Target Chain>
nan

> <pIC50>
-0.6435

> <Num_H_Donors_Lipinski>
2

> <Num_H_Acceptors_Lipinski>
10

> <Molecular_Weight>
439.50262

> <ALogP>
0.913

> <Num_RotatableBonds>
8

> <Molecular_PolarSurfaceArea>
125.48

> <Num_H_Acceptors>
7

> <Num_H_Donors>
2

> <Num_Rings>
3

> <Num_AromaticRings>
0

> <Molecular_FractionalPolarSurfaceArea>
0.297

> <Activity_Bin>
7

> <PLSTempModel>
-6.13545616529584e-002

> <PLSTempModel_Residuals>
-0.582145438347042

$$$$
Untitled_41
  SciTegic11182514132D

 29 30  0  0  0  0            999 V2000
   26.3000   -0.7375    0.0000 C   0  0  2  0  0  0
   27.0145   -0.3250    0.0000 C   0  0
   25.5855   -0.3250    0.0000 C   0  0
   24.8711   -0.7375    0.0000 N   0  0
   25.5855    0.5000    0.0000 O   0  0
   27.7289   -0.7375    0.0000 N   0  0
   28.4434   -0.3250    0.0000 C   0  0
   27.7289   -1.5625    0.0000 O   0  0
   28.4434    0.5000    0.0000 O   0  0
   26.3007   -1.5624    0.0000 C   0  0
   25.6257   -2.0374    0.0000 C   0  0
   24.8430   -1.7700    0.0000 C   0  0
   24.3482   -2.4301    0.0000 C   0  0
   24.8231   -3.1048    0.0000 C   0  0
   25.6114   -2.8615    0.0000 C   0  0
   24.1135   -0.4002    0.0000 C   0  0  1  0  0  0
   23.5614   -1.0133    0.0000 C   0  0
   23.9740   -1.7278    0.0000 C   0  0
   24.7809   -1.5562    0.0000 C   0  0
   23.9419    0.4068    0.0000 C   0  0
   24.5550    0.9588    0.0000 O   0  0
   23.1573    0.6617    0.0000 N   0  0
   22.9858    1.4687    0.0000 C   0  0
   23.5989    2.0207    0.0000 O   0  0
   22.2012    1.7236    0.0000 N   0  0
   22.0297    2.5306    0.0000 C   0  0
   22.6427    3.0826    0.0000 C   0  0
   21.2450    2.7855    0.0000 C   0  0
   21.8125    3.3333    0.0000 C   0  0
 14 15  1  0
 15 11  1  0
 16  4  1  0
  6  8  1  0
  7  9  2  0
  3  5  2  0
 16 17  1  0
 17 18  1  0
 18 19  1  0
 19  4  1  0
  1 10  1  1
 16 20  1  1
  1  3  1  0
 20 21  2  0
 10 11  1  0
 20 22  1  0
 11 12  1  0
 22 23  1  0
  2  6  1  0
 23 24  2  0
  1  2  1  0
 23 25  1  0
  6  7  1  0
 25 26  1  0
  3  4  1  0
 26 27  1  0
 12 13  1  0
 26 28  1  0
 13 14  1  0
 26 29  1  0
M  END
> <Name>
Untitled_41

> <OBJECTID>
9223372058332889099

> <From>
www.bindingDB.org

> <BindingDB Reactant_set_id>
50935654

> <Ligand InChI>
InChI=1S/C20H34N4O5/c1-20(2,3)22-19(28)21-17(26)16-9-6-10-24(16)18(27)15(12-23(29)13-25)11-14-7-4-5-8-14/h13-16,29H,4-12H2,1-3H3,(H2,21,22,26,28)/t15-,16+/m1/s1

> <Ligand InChI Key>
DASPZGADAHNUMQ-CVEARBPZSA-N

> <BindingDB MonomerID>
50383994

> <BindingDB Ligand Name>
CHEMBL2032132

> <Target Name>
Peptide deformylase

> <Target Source Organism According to Curator or DataSource>
Streptococcus pneumoniae serotype 4 (strain ATCC BAA-334 / TIGR4)

> <Ki (nM)>
nan

> <IC50 (nM)>
0.22

> <Kd (nM)>
nan

> <EC50 (nM)>
nan

> <kon (M-1-s-1)>
nan

> <koff (s-1)>
nan

> <pH>
nan

> <Temp C>
nan

> <Curation/DataSource>
ChEMBL

> <Article DOI>
10.1016/j.bmcl.2012.04.086

> <BindingDB Entry DOI>
10.7270/Q2K64K3V

> <PMID>
22579486

> <PubChem AID>
<NA>

> <Patent Number>
nan

> <Authors>
Axten, JM; Medina, JR; Blackledge, CW; Duquenne, C; Grant, SW; Bobko, MA; Peng, T; Miller, WH; Pinckney, T; Gallagher, TF; Kulkarni, S; Lewandowski, T; Van Aller, GS; Zonis, R; Ward, P; Campobasso, N

> <Date of publication>
5/29/2012

> <Date in BindingDB>
2/7/2013

> <Institution>
GlaxoSmithKline

> <Link to Ligand in BindingDB>
http://www.bindingdb.org/bind/chemsearch/marvin/MolStructure.jsp?monomerid=50383994

> <Link to Ligand-Target Pair in BindingDB>
http://www.bindingdb.org/jsp/dbsearch/PrimarySearch_ki.jsp?energyterm=kJ/mole&tag=r21&monomerid=50383994&enzyme=Peptide+deformylase&column=ki&startPg=0&Increment=50&submit=Search

> <Ligand HET ID in PDB>
<NA>

> <PDB ID(s) for Ligand-Target Complex>
<NA>

> <PubChem CID of Ligand>
57878125

> <PubChem SID of Ligand>
160863077

> <ChEBI ID of Ligand>
nan

> <ChEMBL ID of Ligand>
CHEMBL2032132

> <DrugBank ID of Ligand>
<NA>

> <IUPHAR_GRAC ID of Ligand>
nan

> <KEGG ID of Ligand>
<NA>

> <ZINC ID of Ligand>
ZINC84758876

> <Number of Protein Chains in Target (bigger than 1 implies a multichain complex)>
1

> <BindingDB Target Chain Sequence>
MSAIERITKAAHLIDMNDIIREGNPTLRAIAEEVTFPLSDQEIILGEKMMQFLKHSQDPVMAEKMGLRGGVGLAAPQLDISKRIIAVLVPNIVEEGETPQEAYDLEAIMYNPKIVSHSVQDAALGEGEGCLSVDRNVPGYVVRHARVTVDYFDKDGEKHRIKLKGYNSIVVQHEIDHINGIMFYDRINEKDPFAVKDGLL
ILE

> <PDB ID(s) of Target Chain>
<NA>

> <UniProt (SwissProt) Recommended Name of Target Chain>
Peptide deformylase

> <UniProt (SwissProt) Entry Name of Target Chain>
DEF_STRPN

> <UniProt (SwissProt) Primary ID of Target Chain>
Q9F2F0

> <UniProt (SwissProt) Secondary ID(s) of Target Chain>
<NA>

> <UniProt (SwissProt) Alternative ID(s) of Target Chain>
nan

> <UniProt (TrEMBL) Submitted Name of Target Chain>
<NA>

> <UniProt (TrEMBL) Entry Name of Target Chain>
<NA>

> <UniProt (TrEMBL) Primary ID of Target Chain>
<NA>

> <UniProt (TrEMBL) Secondary ID(s) of Target Chain>
nan

> <UniProt (TrEMBL) Alternative ID(s) of Target Chain>
nan

> <pIC50>
0.6576

> <Num_H_Donors_Lipinski>
3

> <Num_H_Acceptors_Lipinski>
9

> <Molecular_Weight>
410.50776

> <ALogP>
1.356

> <Num_RotatableBonds>
7

> <Molecular_PolarSurfaceArea>
119.05

> <Num_H_Acceptors>
5

> <Num_H_Donors>
3

> <Num_Rings>
2

> <Num_AromaticRings>
0

> <Molecular_FractionalPolarSurfaceArea>
0.282

> <Activity_Bin>
10

> <PLSTempModel>
0.415916251536952

> <PLSTempModel_Residuals>
0.241683748463048

$$$$
Untitled_254
  SciTegic11182514132D

 28 29  0  0  0  0            999 V2000
    0.3750  -15.7042    0.0000 C   0  0  2  0  0  0
    1.0895  -15.2917    0.0000 C   0  0
   -0.3395  -15.2917    0.0000 C   0  0
   -1.0539  -15.7042    0.0000 N   0  0
   -0.3395  -14.4667    0.0000 O   0  0
    1.8039  -15.7042    0.0000 N   0  0
    2.5184  -15.2917    0.0000 C   0  0
    1.8039  -16.5292    0.0000 O   0  0
    2.5184  -14.4667    0.0000 O   0  0
    0.3757  -16.5291    0.0000 C   0  0
   -0.2993  -17.0040    0.0000 C   0  0
   -1.0820  -16.7367    0.0000 C   0  0
   -1.5768  -17.3968    0.0000 C   0  0
   -1.1019  -18.0715    0.0000 C   0  0
   -0.3136  -17.8282    0.0000 C   0  0
   -1.8115  -15.3669    0.0000 C   0  0  1  0  0  0
   -2.3636  -15.9800    0.0000 C   0  0
   -1.9510  -16.6945    0.0000 C   0  0
   -1.1441  -16.5228    0.0000 C   0  0
   -1.9831  -14.5599    0.0000 C   0  0
   -1.3700  -14.0079    0.0000 O   0  0
   -2.7677  -14.3049    0.0000 N   0  0
   -2.9392  -13.4980    0.0000 C   0  0
   -2.3261  -12.9459    0.0000 O   0  0
   -3.7238  -13.2430    0.0000 N   0  0
   -3.8953  -12.4361    0.0000 C   0  0
   -3.2823  -11.8840    0.0000 C   0  0
   -3.4538  -11.0771    0.0000 C   0  0
 13 14  1  0
 14 15  1  0
 15 11  1  0
 16  4  1  0
  6  8  1  0
  7  9  2  0
  3  5  2  0
 16 17  1  0
 17 18  1  0
 18 19  1  0
 19  4  1  0
  1 10  1  1
 16 20  1  1
  1  3  1  0
 20 21  2  0
 10 11  1  0
 20 22  1  0
 11 12  1  0
 22 23  1  0
  2  6  1  0
 23 24  2  0
  1  2  1  0
 23 25  1  0
  6  7  1  0
 25 26  1  0
  3  4  1  0
 26 27  1  0
 12 13  1  0
 27 28  2  0
M  END
> <Name>
Untitled_254

> <OBJECTID>
9223372243016482827

> <From>
www.bindingDB.org

> <BindingDB Reactant_set_id>
50935661

> <Ligand InChI>
InChI=1S/C19H30N4O5/c1-2-9-20-19(27)21-17(25)16-8-5-10-23(16)18(26)15(12-22(28)13-24)11-14-6-3-4-7-14/h2,13-16,28H,1,3-12H2,(H2,20,21,25,27)/t15-,16+/m1/s1

> <Ligand InChI Key>
YJOLDRKNWFZJPU-CVEARBPZSA-N

> <BindingDB MonomerID>
50384001

> <BindingDB Ligand Name>
CHEMBL2032139

> <Target Name>
Peptide deformylase

> <Target Source Organism According to Curator or DataSource>
Streptococcus pneumoniae serotype 4 (strain ATCC BAA-334 / TIGR4)

> <Ki (nM)>
nan

> <IC50 (nM)>
2.1

> <Kd (nM)>
nan

> <EC50 (nM)>
nan

> <kon (M-1-s-1)>
nan

> <koff (s-1)>
nan

> <pH>
nan

> <Temp C>
nan

> <Curation/DataSource>
ChEMBL

> <Article DOI>
10.1016/j.bmcl.2012.04.086

> <BindingDB Entry DOI>
10.7270/Q2K64K3V

> <PMID>
22579486

> <PubChem AID>
<NA>

> <Patent Number>
nan

> <Authors>
Axten, JM; Medina, JR; Blackledge, CW; Duquenne, C; Grant, SW; Bobko, MA; Peng, T; Miller, WH; Pinckney, T; Gallagher, TF; Kulkarni, S; Lewandowski, T; Van Aller, GS; Zonis, R; Ward, P; Campobasso, N

> <Date of publication>
5/29/2012

> <Date in BindingDB>
2/7/2013

> <Institution>
GlaxoSmithKline

> <Link to Ligand in BindingDB>
http://www.bindingdb.org/bind/chemsearch/marvin/MolStructure.jsp?monomerid=50384001

> <Link to Ligand-Target Pair in BindingDB>
http://www.bindingdb.org/jsp/dbsearch/PrimarySearch_ki.jsp?energyterm=kJ/mole&tag=r21&monomerid=50384001&enzyme=Peptide+deformylase&column=ki&startPg=0&Increment=50&submit=Search

> <Ligand HET ID in PDB>
<NA>

> <PDB ID(s) for Ligand-Target Complex>
<NA>

> <PubChem CID of Ligand>
57878101

> <PubChem SID of Ligand>
160863084

> <ChEBI ID of Ligand>
nan

> <ChEMBL ID of Ligand>
CHEMBL2032139

> <DrugBank ID of Ligand>
<NA>

> <IUPHAR_GRAC ID of Ligand>
nan

> <KEGG ID of Ligand>
<NA>

> <ZINC ID of Ligand>
ZINC84654170

> <Number of Protein Chains in Target (bigger than 1 implies a multichain complex)>
1

> <BindingDB Target Chain Sequence>
MSAIERITKAAHLIDMNDIIREGNPTLRAIAEEVTFPLSDQEIILGEKMMQFLKHSQDPVMAEKMGLRGGVGLAAPQLDISKRIIAVLVPNIVEEGETPQEAYDLEAIMYNPKIVSHSVQDAALGEGEGCLSVDRNVPGYVVRHARVTVDYFDKDGEKHRIKLKGYNSIVVQHEIDHINGIMFYDRINEKDPFAVKDGLL
ILE

> <PDB ID(s) of Target Chain>
<NA>

> <UniProt (SwissProt) Recommended Name of Target Chain>
Peptide deformylase

> <UniProt (SwissProt) Entry Name of Target Chain>
DEF_STRPN

> <UniProt (SwissProt) Primary ID of Target Chain>
Q9F2F0

> <UniProt (SwissProt) Secondary ID(s) of Target Chain>
<NA>

> <UniProt (SwissProt) Alternative ID(s) of Target Chain>
nan

> <UniProt (TrEMBL) Submitted Name of Target Chain>
<NA>

> <UniProt (TrEMBL) Entry Name of Target Chain>
<NA>

> <UniProt (TrEMBL) Primary ID of Target Chain>
<NA>

> <UniProt (TrEMBL) Secondary ID(s) of Target Chain>
nan

> <UniProt (TrEMBL) Alternative ID(s) of Target Chain>
nan

> <pIC50>
-0.3222

> <Num_H_Donors_Lipinski>
3

> <Num_H_Acceptors_Lipinski>
9

> <Molecular_Weight>
394.4653

> <ALogP>
1.042

> <Num_RotatableBonds>
8

> <Molecular_PolarSurfaceArea>
119.05

> <Num_H_Acceptors>
5

> <Num_H_Donors>
3

> <Num_Rings>
2

> <Num_AromaticRings>
0

> <Molecular_FractionalPolarSurfaceArea>
0.303

> <Activity_Bin>
8

> <PLSTempModel>
0.125911766786131

> <PLSTempModel_Residuals>
-0.448111766786131

$$$$
Untitled_551
  SciTegic11182514132D

 23 25  0  0  0  0            999 V2000
   -1.8958   -2.8000    0.0000 N   0  0
   -1.1750   -2.3792    0.0000 C   0  0
   -1.8958   -1.1417    0.0000 S   0  0
   -1.1833   -1.5542    0.0000 C   0  0
   -0.4708   -1.1417    0.0000 C   0  0
   -2.6083   -2.3875    0.0000 C   0  0
   -2.6083   -1.5625    0.0000 C   0  0
    0.2500   -1.5500    0.0000 C   0  0
   -0.4583   -2.7917    0.0000 O   0  0
    0.2542   -2.3750    0.0000 O   0  0
    0.9625   -1.1375    0.0000 N   0  0
    1.6792   -1.5417    0.0000 O   0  0
    2.3792   -0.3042    0.0000 C   0  0
   -3.3250   -2.8042    0.0000 C   0  0
   -3.3250   -1.1500    0.0000 C   0  0
    2.3917   -1.1292    0.0000 C   0  0
    3.0917    0.1208    0.0000 C   0  0
    1.6667    0.1000    0.0000 C   0  0
   -4.0375   -1.5625    0.0000 C   0  0
   -4.0375   -2.3917    0.0000 C   0  0
    1.6542    0.9208    0.0000 C   0  0
    3.0875    0.9375    0.0000 C   0  0
    2.3667    1.3458    0.0000 C   0  0
  2  1  1  0
  3  7  1  0
  4  2  1  0
  5  4  1  0
  6  1  1  0
  7  6  2  0
  8  5  1  0
  9  2  2  0
 10  8  2  0
 11  8  1  0
 12 11  1  0
 13 16  1  0
 14  6  1  0
 15  7  1  0
 16 12  1  0
 17 13  2  0
 18 13  1  0
 19 20  1  0
 20 14  2  0
 21 18  2  0
 22 17  1  0
 23 21  1  0
  3  4  1  0
 19 15  2  0
 23 22  2  0
M  END
> <Name>
Untitled_551

> <OBJECTID>
9223372419110141963

> <From>
www.bindingDB.org

> <BindingDB Reactant_set_id>
50259741

> <Ligand InChI>
InChI=1S/C17H16N2O3S/c20-16(19-22-11-12-6-2-1-3-7-12)10-15-17(21)18-13-8-4-5-9-14(13)23-15/h1-9,15H,10-11H2,(H,18,21)(H,19,20)

> <Ligand InChI Key>
DMVOUVDUPNJQKQ-UHFFFAOYSA-N

> <BindingDB MonomerID>
50141382

> <BindingDB Ligand Name>
CHEMBL287247::N-Benzyloxy-2-(3-oxo-3,4-dihydro-2H-benzo[1,4]thiazin-2-yl)-acetamide

> <Target Name>
Peptide deformylase

> <Target Source Organism According to Curator or DataSource>
Staphylococcus aureus (strain Mu50 / ATCC 700699)

> <Ki (nM)>
nan

> <IC50 (nM)>
230

> <Kd (nM)>
nan

> <EC50 (nM)>
nan

> <kon (M-1-s-1)>
nan

> <koff (s-1)>
nan

> <pH>
nan

> <Temp C>
nan

> <Curation/DataSource>
ChEMBL

> <Article DOI>
10.1016/j.bmcl.2004.01.014

> <BindingDB Entry DOI>
10.7270/Q2MS3S6G

> <PMID>
15006385

> <PubChem AID>
<NA>

> <Patent Number>
nan

> <Authors>
Molteni, V; He, X; Nabakka, J; Yang, K; Kreusch, A; Gordon, P; Bursulaya, B; Warner, I; Shin, T; Biorac, T; Ryder, NS; Goldberg, R; Doughty, J; He, Y

> <Date of publication>
3/9/2004

> <Date in BindingDB>
11/10/2009

> <Institution>
Genomics Institute of the Novartis Research Foundation

> <Link to Ligand in BindingDB>
http://www.bindingdb.org/bind/chemsearch/marvin/MolStructure.jsp?monomerid=50141382

> <Link to Ligand-Target Pair in BindingDB>
http://www.bindingdb.org/jsp/dbsearch/PrimarySearch_ki.jsp?energyterm=kJ/mole&tag=r21&monomerid=50141382&enzyme=Peptide+deformylase&column=ki&startPg=0&Increment=50&submit=Search

> <Ligand HET ID in PDB>
<NA>

> <PDB ID(s) for Ligand-Target Complex>
<NA>

> <PubChem CID of Ligand>
44283040

> <PubChem SID of Ligand>
104030841

> <ChEBI ID of Ligand>
nan

> <ChEMBL ID of Ligand>
CHEMBL287247

> <DrugBank ID of Ligand>
<NA>

> <IUPHAR_GRAC ID of Ligand>
nan

> <KEGG ID of Ligand>
<NA>

> <ZINC ID of Ligand>
ZINC08096829

> <Number of Protein Chains in Target (bigger than 1 implies a multichain complex)>
1

> <BindingDB Target Chain Sequence>
MLTMKDIIRDGHPTLRQKAAELELPLTKEEKETLIAMREFLVNSQDEEIAKRYGLRSGVGLAAPQINISKRMIAVLIPDDGSGKSYDYMLVNPKIVSHSVQEAYLPTGEGCLSVDDNVAGLVHRHNRITIKAKDIEGNDIQLRLKGYPAIVFQHEIDHLNGVMFYDHIDKNHPLQPHTDAVEV

> <PDB ID(s) of Target Chain>
1LM4,1LMH,1LQW,2AI9,6JFG,6JFO,6JFQ,6JFR,6JFS

> <UniProt (SwissProt) Recommended Name of Target Chain>
Peptide deformylase

> <UniProt (SwissProt) Entry Name of Target Chain>
DEF_STAAU

> <UniProt (SwissProt) Primary ID of Target Chain>
P68826

> <UniProt (SwissProt) Secondary ID(s) of Target Chain>
Q9F4L4

> <UniProt (SwissProt) Alternative ID(s) of Target Chain>
nan

> <UniProt (TrEMBL) Submitted Name of Target Chain>
<NA>

> <UniProt (TrEMBL) Entry Name of Target Chain>
<NA>

> <UniProt (TrEMBL) Primary ID of Target Chain>
<NA>

> <UniProt (TrEMBL) Secondary ID(s) of Target Chain>
nan

> <UniProt (TrEMBL) Alternative ID(s) of Target Chain>
nan

> <pIC50>
-2.3617

> <Num_H_Donors_Lipinski>
2

> <Num_H_Acceptors_Lipinski>
5

> <Molecular_Weight>
328.38554

> <ALogP>
2.05

> <Num_RotatableBonds>
5

> <Molecular_PolarSurfaceArea>
92.73

> <Num_H_Acceptors>
4

> <Num_H_Donors>
2

> <Num_Rings>
3

> <Num_AromaticRings>
2

> <Molecular_FractionalPolarSurfaceArea>
0.312

> <Activity_Bin>
3

> <PLSTempModel>
-1.87009087252852

> <PLSTempModel_Residuals>
-0.491609127471476

$$$$
Untitled_294
  SciTegic11182514132D

 28 30  0  0  0  0            999 V2000
   -0.3250   -9.2167    0.0000 C   0  0  2  0  0  0
    0.3895   -8.8042    0.0000 C   0  0
   -1.0395   -8.8042    0.0000 C   0  0
   -1.7539   -9.2167    0.0000 N   0  0
   -1.0395   -7.9792    0.0000 O   0  0
    1.1039   -9.2167    0.0000 N   0  0
    1.8184   -8.8042    0.0000 C   0  0
    1.1039  -10.0417    0.0000 O   0  0
    1.8184   -7.9792    0.0000 O   0  0
   -0.3243  -10.0416    0.0000 C   0  0
   -0.9993  -10.5165    0.0000 C   0  0
   -1.7820  -10.2492    0.0000 C   0  0
   -2.2768  -10.9093    0.0000 C   0  0
   -1.8019  -11.5840    0.0000 C   0  0
   -1.0136  -11.3407    0.0000 C   0  0
   -2.5115   -8.8794    0.0000 C   0  0  1  0  0  0
   -3.0636   -9.4925    0.0000 C   0  0
   -2.6510  -10.2070    0.0000 C   0  0
   -1.8441  -10.0353    0.0000 C   0  0
   -2.6831   -8.0724    0.0000 C   0  0
   -2.0700   -7.5204    0.0000 O   0  0
   -3.4677   -7.8174    0.0000 N   0  0
   -3.6392   -7.0105    0.0000 C   0  0
   -4.4238   -6.7555    0.0000 C   0  0
   -3.0261   -6.4584    0.0000 O   0  0
   -4.8006   -6.0233    0.0000 C   0  0
   -5.5356   -6.3978    0.0000 C   0  0
   -5.1611   -7.1329    0.0000 C   0  0
 13 14  1  0
 14 15  1  0
 15 11  1  0
 16  4  1  0
  6  8  1  0
  7  9  2  0
  3  5  2  0
 16 17  1  0
 17 18  1  0
 18 19  1  0
 19  4  1  0
  1 10  1  1
 16 20  1  1
  1  3  1  0
 20 21  2  0
 10 11  1  0
 20 22  1  0
 11 12  1  0
 22 23  1  0
  2  6  1  0
 23 24  1  0
  1  2  1  0
 23 25  2  0
 24 26  1  0
  6  7  1  0
  3  4  1  0
 12 13  1  0
 26 27  1  0
 27 28  1  0
 28 24  1  0
M  END
> <Name>
Untitled_294

> <OBJECTID>
9223372298851057675

> <From>
www.bindingDB.org

> <BindingDB Reactant_set_id>
50935675

> <Ligand InChI>
InChI=1S/C20H31N3O5/c24-13-22(28)12-16(11-14-5-1-2-6-14)20(27)23-10-4-9-17(23)19(26)21-18(25)15-7-3-8-15/h13-17,28H,1-12H2,(H,21,25,26)/t16-,17+/m1/s1

> <Ligand InChI Key>
FLUUUWSGUGYMKX-SJORKVTESA-N

> <BindingDB MonomerID>
50383978

> <BindingDB Ligand Name>
CHEMBL2032115

> <Target Name>
Peptide deformylase

> <Target Source Organism According to Curator or DataSource>
Staphylococcus aureus

> <Ki (nM)>
nan

> <IC50 (nM)>
5

> <Kd (nM)>
nan

> <EC50 (nM)>
nan

> <kon (M-1-s-1)>
nan

> <koff (s-1)>
nan

> <pH>
nan

> <Temp C>
nan

> <Curation/DataSource>
ChEMBL

> <Article DOI>
10.1016/j.bmcl.2012.04.086

> <BindingDB Entry DOI>
10.7270/Q2K64K3V

> <PMID>
22579486

> <PubChem AID>
<NA>

> <Patent Number>
nan

> <Authors>
Axten, JM; Medina, JR; Blackledge, CW; Duquenne, C; Grant, SW; Bobko, MA; Peng, T; Miller, WH; Pinckney, T; Gallagher, TF; Kulkarni, S; Lewandowski, T; Van Aller, GS; Zonis, R; Ward, P; Campobasso, N

> <Date of publication>
5/29/2012

> <Date in BindingDB>
2/7/2013

> <Institution>
GlaxoSmithKline

> <Link to Ligand in BindingDB>
http://www.bindingdb.org/bind/chemsearch/marvin/MolStructure.jsp?monomerid=50383978

> <Link to Ligand-Target Pair in BindingDB>
http://www.bindingdb.org/jsp/dbsearch/PrimarySearch_ki.jsp?energyterm=kJ/mole&tag=r21&monomerid=50383978&enzyme=Peptide+deformylase&column=ki&startPg=0&Increment=50&submit=Search

> <Ligand HET ID in PDB>
<NA>

> <PDB ID(s) for Ligand-Target Complex>
<NA>

> <PubChem CID of Ligand>
57878092

> <PubChem SID of Ligand>
160863061

> <ChEBI ID of Ligand>
nan

> <ChEMBL ID of Ligand>
CHEMBL2032115

> <DrugBank ID of Ligand>
<NA>

> <IUPHAR_GRAC ID of Ligand>
nan

> <KEGG ID of Ligand>
<NA>

> <ZINC ID of Ligand>
ZINC84758318

> <Number of Protein Chains in Target (bigger than 1 implies a multichain complex)>
1

> <BindingDB Target Chain Sequence>
MLTMKDIIRD GHPTLRQKAA ELELPLTKEE KETLIAMREF LVNSQDEEIA
KRYGLRSGVG LAAPQINISK RMIAVLIPDD GSGKSYDYML VNPKIVSHSV
QEAYLPTGEG CLSVDDNVAG LVHRHNRITI KAKDIEGNDI QLRLKGYPAI
VFQHEIDHLN GVMFYDHIDK NHPLQPHTDA VEV

> <PDB ID(s) of Target Chain>
1LM4,1LMH,1LQW,2AI9,6JFG,6JFO,6JFQ,6JFR,6JFS

> <UniProt (SwissProt) Recommended Name of Target Chain>
Peptide deformylase

> <UniProt (SwissProt) Entry Name of Target Chain>
DEF_STAAM

> <UniProt (SwissProt) Primary ID of Target Chain>
P68825

> <UniProt (SwissProt) Secondary ID(s) of Target Chain>
Q9F4L4

> <UniProt (SwissProt) Alternative ID(s) of Target Chain>
nan

> <UniProt (TrEMBL) Submitted Name of Target Chain>
<NA>

> <UniProt (TrEMBL) Entry Name of Target Chain>
<NA>

> <UniProt (TrEMBL) Primary ID of Target Chain>
<NA>

> <UniProt (TrEMBL) Secondary ID(s) of Target Chain>
nan

> <UniProt (TrEMBL) Alternative ID(s) of Target Chain>
nan

> <pIC50>
-0.699

> <Num_H_Donors_Lipinski>
2

> <Num_H_Acceptors_Lipinski>
8

> <Molecular_Weight>
393.47724

> <ALogP>
1.643

> <Num_RotatableBonds>
7

> <Molecular_PolarSurfaceArea>
107.02

> <Num_H_Acceptors>
5

> <Num_H_Donors>
2

> <Num_Rings>
3

> <Num_AromaticRings>
0

> <Molecular_FractionalPolarSurfaceArea>
0.282

> <Activity_Bin>
7

> <PLSTempModel>
-0.22500742195092

> <PLSTempModel_Residuals>
-0.473992578049079

$$$$
Untitled_388
  SciTegic11182514132D

 30 32  0  0  0  0            999 V2000
    5.7724   -5.7617    0.0000 N   0  0
    6.4823   -5.3568    0.0000 C   0  0
    7.1878   -5.7691    0.0000 C   0  0  2  0  0  0
    6.4866   -4.5396    0.0000 O   0  0
    5.0646   -5.3425    0.0000 C   0  0  1  0  0  0
    4.3569   -5.7439    0.0000 C   0  0
    4.3484   -6.5614    0.0000 C   0  0
    5.0537   -6.9759    0.0000 C   0  0
    5.7676   -6.5729    0.0000 N   0  0
    7.1835   -6.5863    0.0000 C   0  0
    7.8977   -5.3643    0.0000 C   0  0
    8.6032   -5.7766    0.0000 N   0  0
    9.3131   -5.3717    0.0000 C   0  0
    9.3174   -4.5545    0.0000 O   0  0
    8.5989   -6.5938    0.0000 O   0  0
    6.5994   -7.1607    0.0000 C   0  0
    5.7907   -7.0304    0.0000 C   0  0
    5.4127   -7.7572    0.0000 C   0  0
    5.9872   -8.3413    0.0000 C   0  0
    6.7201   -7.9753    0.0000 C   0  0
    5.0723   -4.5254    0.0000 C   0  0
    5.7838   -4.1234    0.0000 O   0  0
    4.3684   -4.1101    0.0000 N   0  0
    4.3761   -3.2930    0.0000 C   0  0
    5.0873   -2.8957    0.0000 N   0  0
    5.0953   -2.0793    0.0000 C   0  0
    4.3910   -1.6633    0.0000 C   0  0
    3.6771   -2.0696    0.0000 C   0  0
    3.6726   -2.8847    0.0000 C   0  0
    2.9633   -3.2905    0.0000 C   0  0
  1  2  1  0
  2  3  1  0
  2  4  2  0
  1  5  1  0
  1  9  1  0
  5  6  1  0
  6  7  1  0
  7  8  1  0
  8  9  1  0
  3 10  1  1
  3 11  1  0
 11 12  1  0
 12 13  1  0
 13 14  2  0
 12 15  1  0
 10 16  1  0
 16 17  1  0
 17 18  1  0
 18 19  1  0
 19 20  1  0
 20 16  1  0
  5 21  1  1
 21 22  2  0
 21 23  1  0
 23 24  1  0
 24 25  2  0
 25 26  1  0
 26 27  2  0
 27 28  1  0
 28 29  2  0
 29 24  1  0
 29 30  1  0
M  END
> <Name>
Untitled_388

> <OBJECTID>
9223372333210796043

> <From>
www.bindingDB.org

> <BindingDB Reactant_set_id>
51323486

> <Ligand InChI>
InChI=1S/C21H31N5O4/c1-15-6-4-10-22-19(15)24-20(28)18-9-5-11-23-26(18)21(29)17(13-25(30)14-27)12-16-7-2-3-8-16/h4,6,10,14,16-18,23,30H,2-3,5,7-9,11-13H2,1H3,(H,22,24,28)/t17-,18+/m1/s1

> <Ligand InChI Key>
YKYKLDYMNMLXCF-MSOLQXFVSA-N

> <BindingDB MonomerID>
50535498

> <BindingDB Ligand Name>
CHEMBL4435803

> <Target Name>
Peptide deformylase

> <Target Source Organism According to Curator or DataSource>
Staphylococcus aureus

> <Ki (nM)>
nan

> <IC50 (nM)>
16

> <Kd (nM)>
nan

> <EC50 (nM)>
nan

> <kon (M-1-s-1)>
nan

> <koff (s-1)>
nan

> <pH>
nan

> <Temp C>
nan

> <Curation/DataSource>
ChEMBL

> <Article DOI>
10.1016/j.bmcl.2019.05.028

> <BindingDB Entry DOI>
10.7270/Q2FF3WV7

> <PMID>
31160176

> <PubChem AID>
<NA>

> <Patent Number>
nan

> <Authors>
Spletstoser, JT; Dreabit, J; Knox, AN; Benowitz, A; Campobasso, N; Ward, P; Cui, G; Lewandowski, T; McCloskey, L; Aubart, KM

> <Date of publication>
8/15/2019

> <Date in BindingDB>
2/28/2021

> <Institution>
GlaxoSmithKline

> <Link to Ligand in BindingDB>
http://www.bindingdb.org/bind/chemsearch/marvin/MolStructure.jsp?monomerid=50535498

> <Link to Ligand-Target Pair in BindingDB>
http://www.bindingdb.org/jsp/dbsearch/PrimarySearch_ki.jsp?energyterm=kJ/mole&tag=r21&monomerid=50535498&enzyme=Peptide+deformylase&column=ki&startPg=0&Increment=50&submit=Search

> <Ligand HET ID in PDB>
<NA>

> <PDB ID(s) for Ligand-Target Complex>
<NA>

> <PubChem CID of Ligand>
155511474

> <PubChem SID of Ligand>
440744080

> <ChEBI ID of Ligand>
nan

> <ChEMBL ID of Ligand>
<NA>

> <DrugBank ID of Ligand>
<NA>

> <IUPHAR_GRAC ID of Ligand>
nan

> <KEGG ID of Ligand>
<NA>

> <ZINC ID of Ligand>
<NA>

> <Number of Protein Chains in Target (bigger than 1 implies a multichain complex)>
1

> <BindingDB Target Chain Sequence>
MLTMKDIIRD GHPTLRQKAA ELELPLTKEE KETLIAMREF LVNSQDEEIA
KRYGLRSGVG LAAPQINISK RMIAVLIPDD GSGKSYDYML VNPKIVSHSV
QEAYLPTGEG CLSVDDNVAG LVHRHNRITI KAKDIEGNDI QLRLKGYPAI
VFQHEIDHLN GVMFYDHIDK NHPLQPHTDA VEV

> <PDB ID(s) of Target Chain>
1LM4,1LMH,1LQW,2AI9,6JFG,6JFO,6JFQ,6JFR,6JFS

> <UniProt (SwissProt) Recommended Name of Target Chain>
Peptide deformylase

> <UniProt (SwissProt) Entry Name of Target Chain>
DEF_STAAM

> <UniProt (SwissProt) Primary ID of Target Chain>
P68825

> <UniProt (SwissProt) Secondary ID(s) of Target Chain>
Q9F4L4

> <UniProt (SwissProt) Alternative ID(s) of Target Chain>
nan

> <UniProt (TrEMBL) Submitted Name of Target Chain>
<NA>

> <UniProt (TrEMBL) Entry Name of Target Chain>
<NA>

> <UniProt (TrEMBL) Primary ID of Target Chain>
<NA>

> <UniProt (TrEMBL) Secondary ID(s) of Target Chain>
nan

> <UniProt (TrEMBL) Alternative ID(s) of Target Chain>
nan

> <pIC50>
-1.2041

> <Num_H_Donors_Lipinski>
3

> <Num_H_Acceptors_Lipinski>
9

> <Molecular_Weight>
417.50194

> <ALogP>
1.604

> <Num_RotatableBonds>
7

> <Molecular_PolarSurfaceArea>
114.87

> <Num_H_Acceptors>
6

> <Num_H_Donors>
3

> <Num_Rings>
3

> <Num_AromaticRings>
1

> <Molecular_FractionalPolarSurfaceArea>
0.281

> <Activity_Bin>
6

> <PLSTempModel>
-1.08098255632344

> <PLSTempModel_Residuals>
-0.12311744367656

$$$$
Untitled_272
  SciTegic11182514132D

 30 31  0  0  0  0            999 V2000
   26.7750  -22.3750    0.0000 C   0  0  2  0  0  0
   27.4895  -21.9625    0.0000 C   0  0
   26.0605  -21.9625    0.0000 C   0  0
   25.3461  -22.3750    0.0000 N   0  0
   26.0605  -21.1375    0.0000 O   0  0
   28.2039  -22.3750    0.0000 N   0  0
   28.9184  -21.9625    0.0000 C   0  0
   28.2039  -23.2000    0.0000 O   0  0
   28.9184  -21.1375    0.0000 O   0  0
   26.7757  -23.1999    0.0000 C   0  0
   26.1007  -23.6749    0.0000 C   0  0
   25.3180  -23.4075    0.0000 C   0  0
   24.8232  -24.0676    0.0000 C   0  0
   25.2981  -24.7423    0.0000 C   0  0
   26.0864  -24.4990    0.0000 C   0  0
   24.5885  -22.0377    0.0000 C   0  0  1  0  0  0
   24.0364  -22.6508    0.0000 C   0  0
   24.4490  -23.3653    0.0000 C   0  0
   25.2559  -23.1937    0.0000 C   0  0
   24.4169  -21.2307    0.0000 C   0  0
   25.0300  -20.6787    0.0000 O   0  0
   23.6323  -20.9758    0.0000 N   0  0
   23.4608  -20.1688    0.0000 C   0  0
   24.0739  -19.6168    0.0000 O   0  0
   22.6762  -19.9139    0.0000 N   0  0
   22.5047  -19.1069    0.0000 C   0  0
   21.7200  -18.8520    0.0000 C   0  0
   21.5485  -18.0450    0.0000 C   0  0
   20.7639  -17.7900    0.0000 N   0  0
   22.1616  -17.4930    0.0000 O   0  0
 15 11  1  0
 16  4  1  0
  6  8  1  0
  7  9  2  0
  3  5  2  0
 16 17  1  0
 17 18  1  0
 18 19  1  0
 19  4  1  0
  1 10  1  1
 16 20  1  1
  1  3  1  0
 20 21  2  0
 10 11  1  0
 20 22  1  0
 11 12  1  0
 22 23  1  0
  2  6  1  0
 23 24  2  0
  1  2  1  0
 23 25  1  0
  6  7  1  0
 25 26  1  0
  3  4  1  0
 26 27  1  0
 12 13  1  0
 27 28  1  0
 13 14  1  0
 28 29  1  0
 14 15  1  0
 28 30  2  0
M  END
> <Name>
Untitled_272

> <OBJECTID>
9223372268786286603

> <From>
www.bindingDB.org

> <BindingDB Reactant_set_id>
50935631

> <Ligand InChI>
InChI=1S/C19H31N5O6/c20-16(26)7-8-21-19(29)22-17(27)15-6-3-9-24(15)18(28)14(11-23(30)12-25)10-13-4-1-2-5-13/h12-15,30H,1-11H2,(H2,20,26)(H2,21,22,27,29)/t14-,15+/m1/s1

> <Ligand InChI Key>
QFWSNBCYIILFGI-CABCVRRESA-N

> <BindingDB MonomerID>
50383973

> <BindingDB Ligand Name>
CHEMBL2032147

> <Target Name>
Peptide deformylase

> <Target Source Organism According to Curator or DataSource>
Staphylococcus aureus

> <Ki (nM)>
nan

> <IC50 (nM)>
3.3

> <Kd (nM)>
nan

> <EC50 (nM)>
nan

> <kon (M-1-s-1)>
nan

> <koff (s-1)>
nan

> <pH>
nan

> <Temp C>
nan

> <Curation/DataSource>
ChEMBL

> <Article DOI>
10.1016/j.bmcl.2012.04.086

> <BindingDB Entry DOI>
10.7270/Q2K64K3V

> <PMID>
22579486

> <PubChem AID>
<NA>

> <Patent Number>
nan

> <Authors>
Axten, JM; Medina, JR; Blackledge, CW; Duquenne, C; Grant, SW; Bobko, MA; Peng, T; Miller, WH; Pinckney, T; Gallagher, TF; Kulkarni, S; Lewandowski, T; Van Aller, GS; Zonis, R; Ward, P; Campobasso, N

> <Date of publication>
5/29/2012

> <Date in BindingDB>
2/7/2013

> <Institution>
GlaxoSmithKline

> <Link to Ligand in BindingDB>
http://www.bindingdb.org/bind/chemsearch/marvin/MolStructure.jsp?monomerid=50383973

> <Link to Ligand-Target Pair in BindingDB>
http://www.bindingdb.org/jsp/dbsearch/PrimarySearch_ki.jsp?energyterm=kJ/mole&tag=r21&monomerid=50383973&enzyme=Peptide+deformylase&column=ki&startPg=0&Increment=50&submit=Search

> <Ligand HET ID in PDB>
<NA>

> <PDB ID(s) for Ligand-Target Complex>
<NA>

> <PubChem CID of Ligand>
70685926

> <PubChem SID of Ligand>
160863056

> <ChEBI ID of Ligand>
nan

> <ChEMBL ID of Ligand>
CHEMBL2032147

> <DrugBank ID of Ligand>
<NA>

> <IUPHAR_GRAC ID of Ligand>
nan

> <KEGG ID of Ligand>
<NA>

> <ZINC ID of Ligand>
ZINC84670516

> <Number of Protein Chains in Target (bigger than 1 implies a multichain complex)>
1

> <BindingDB Target Chain Sequence>
MLTMKDIIRD GHPTLRQKAA ELELPLTKEE KETLIAMREF LVNSQDEEIA
KRYGLRSGVG LAAPQINISK RMIAVLIPDD GSGKSYDYML VNPKIVSHSV
QEAYLPTGEG CLSVDDNVAG LVHRHNRITI KAKDIEGNDI QLRLKGYPAI
VFQHEIDHLN GVMFYDHIDK NHPLQPHTDA VEV

> <PDB ID(s) of Target Chain>
1LM4,1LMH,1LQW,2AI9,6JFG,6JFO,6JFQ,6JFR,6JFS

> <UniProt (SwissProt) Recommended Name of Target Chain>
Peptide deformylase

> <UniProt (SwissProt) Entry Name of Target Chain>
DEF_STAAM

> <UniProt (SwissProt) Primary ID of Target Chain>
P68825

> <UniProt (SwissProt) Secondary ID(s) of Target Chain>
Q9F4L4

> <UniProt (SwissProt) Alternative ID(s) of Target Chain>
nan

> <UniProt (TrEMBL) Submitted Name of Target Chain>
<NA>

> <UniProt (TrEMBL) Entry Name of Target Chain>
<NA>

> <UniProt (TrEMBL) Primary ID of Target Chain>
<NA>

> <UniProt (TrEMBL) Secondary ID(s) of Target Chain>
nan

> <UniProt (TrEMBL) Alternative ID(s) of Target Chain>
nan

> <pIC50>
-0.5185

> <Num_H_Donors_Lipinski>
5

> <Num_H_Acceptors_Lipinski>
11

> <Molecular_Weight>
425.47934

> <ALogP>
-0.473

> <Num_RotatableBonds>
9

> <Molecular_PolarSurfaceArea>
162.14

> <Num_H_Acceptors>
6

> <Num_H_Donors>
4

> <Num_Rings>
2

> <Num_AromaticRings>
0

> <Molecular_FractionalPolarSurfaceArea>
0.383

> <Activity_Bin>
7

> <PLSTempModel>
-0.120485186553545

> <PLSTempModel_Residuals>
-0.398014813446455

$$$$
Untitled_42
  SciTegic11182514132D

 30 32  0  0  0  0            999 V2000
   -0.2333  -24.3458    0.0000 C   0  0  2  0  0  0
    0.4811  -23.9333    0.0000 C   0  0
   -0.9478  -23.9333    0.0000 C   0  0
   -1.6623  -24.3458    0.0000 N   0  0
   -0.9478  -23.1083    0.0000 O   0  0
    1.1956  -24.3458    0.0000 N   0  0
    1.9101  -23.9333    0.0000 C   0  0
    1.1956  -25.1708    0.0000 O   0  0
    1.9101  -23.1083    0.0000 O   0  0
   -0.2327  -25.1708    0.0000 C   0  0
   -0.9076  -25.6457    0.0000 C   0  0
   -1.6903  -25.3783    0.0000 C   0  0
   -2.1852  -26.0384    0.0000 C   0  0
   -1.7103  -26.7131    0.0000 C   0  0
   -0.9220  -26.4698    0.0000 C   0  0
   -2.4199  -24.0085    0.0000 C   0  0  1  0  0  0
   -2.9719  -24.6216    0.0000 C   0  0
   -2.5594  -25.3361    0.0000 C   0  0
   -1.7525  -25.1645    0.0000 C   0  0
   -2.5914  -23.2016    0.0000 C   0  0
   -1.9783  -22.6495    0.0000 O   0  0
   -3.3760  -22.9466    0.0000 N   0  0
   -3.5475  -22.1396    0.0000 C   0  0
   -2.9344  -21.5876    0.0000 O   0  0
   -4.3322  -21.8847    0.0000 O   0  0
   -4.5037  -21.0777    0.0000 C   0  0
   -3.9512  -20.4597    0.0000 C   0  0
   -4.3637  -19.7452    0.0000 C   0  0
   -5.1707  -19.9167    0.0000 C   0  0
   -5.2568  -20.7372    0.0000 C   0  0
 15 11  1  0
 16  4  1  0
  6  8  1  0
  7  9  2  0
  3  5  2  0
 16 17  1  0
 17 18  1  0
 18 19  1  0
 19  4  1  0
  1 10  1  1
 16 20  1  1
  1  3  1  0
 20 21  2  0
 10 11  1  0
 20 22  1  0
 11 12  1  0
 22 23  1  0
  2  6  1  0
 23 24  2  0
  1  2  1  0
 23 25  1  0
  6  7  1  0
 25 26  1  0
 26 27  1  0
  3  4  1  0
 12 13  1  0
 13 14  1  0
 14 15  1  0
 27 28  1  0
 28 29  1  0
 29 30  1  0
 30 26  1  0
M  END
> <Name>
Untitled_42

> <OBJECTID>
9223372062627856395

> <From>
www.bindingDB.org

> <BindingDB Reactant_set_id>
50935647

> <Ligand InChI>
InChI=1S/C21H33N3O6/c25-14-23(29)13-16(12-15-6-1-2-7-15)20(27)24-11-5-10-18(24)19(26)22-21(28)30-17-8-3-4-9-17/h14-18,29H,1-13H2,(H,22,26,28)/t16-,18+/m1/s1

> <Ligand InChI Key>
HEQWKNRYJNNDQJ-AEFFLSMTSA-N

> <BindingDB MonomerID>
50383987

> <BindingDB Ligand Name>
CHEMBL2032125

> <Target Name>
Peptide deformylase

> <Target Source Organism According to Curator or DataSource>
Streptococcus pneumoniae serotype 4 (strain ATCC BAA-334 / TIGR4)

> <Ki (nM)>
nan

> <IC50 (nM)>
0.26

> <Kd (nM)>
nan

> <EC50 (nM)>
nan

> <kon (M-1-s-1)>
nan

> <koff (s-1)>
nan

> <pH>
nan

> <Temp C>
nan

> <Curation/DataSource>
ChEMBL

> <Article DOI>
10.1016/j.bmcl.2012.04.086

> <BindingDB Entry DOI>
10.7270/Q2K64K3V

> <PMID>
22579486

> <PubChem AID>
<NA>

> <Patent Number>
nan

> <Authors>
Axten, JM; Medina, JR; Blackledge, CW; Duquenne, C; Grant, SW; Bobko, MA; Peng, T; Miller, WH; Pinckney, T; Gallagher, TF; Kulkarni, S; Lewandowski, T; Van Aller, GS; Zonis, R; Ward, P; Campobasso, N

> <Date of publication>
5/29/2012

> <Date in BindingDB>
2/7/2013

> <Institution>
GlaxoSmithKline

> <Link to Ligand in BindingDB>
http://www.bindingdb.org/bind/chemsearch/marvin/MolStructure.jsp?monomerid=50383987

> <Link to Ligand-Target Pair in BindingDB>
http://www.bindingdb.org/jsp/dbsearch/PrimarySearch_ki.jsp?energyterm=kJ/mole&tag=r21&monomerid=50383987&enzyme=Peptide+deformylase&column=ki&startPg=0&Increment=50&submit=Search

> <Ligand HET ID in PDB>
<NA>

> <PDB ID(s) for Ligand-Target Complex>
<NA>

> <PubChem CID of Ligand>
16036158

> <PubChem SID of Ligand>
160863070

> <ChEBI ID of Ligand>
nan

> <ChEMBL ID of Ligand>
CHEMBL2032125

> <DrugBank ID of Ligand>
<NA>

> <IUPHAR_GRAC ID of Ligand>
nan

> <KEGG ID of Ligand>
<NA>

> <ZINC ID of Ligand>
ZINC34874147

> <Number of Protein Chains in Target (bigger than 1 implies a multichain complex)>
1

> <BindingDB Target Chain Sequence>
MSAIERITKAAHLIDMNDIIREGNPTLRAIAEEVTFPLSDQEIILGEKMMQFLKHSQDPVMAEKMGLRGGVGLAAPQLDISKRIIAVLVPNIVEEGETPQEAYDLEAIMYNPKIVSHSVQDAALGEGEGCLSVDRNVPGYVVRHARVTVDYFDKDGEKHRIKLKGYNSIVVQHEIDHINGIMFYDRINEKDPFAVKDGLL
ILE

> <PDB ID(s) of Target Chain>
<NA>

> <UniProt (SwissProt) Recommended Name of Target Chain>
Peptide deformylase

> <UniProt (SwissProt) Entry Name of Target Chain>
DEF_STRPN

> <UniProt (SwissProt) Primary ID of Target Chain>
Q9F2F0

> <UniProt (SwissProt) Secondary ID(s) of Target Chain>
<NA>

> <UniProt (SwissProt) Alternative ID(s) of Target Chain>
nan

> <UniProt (TrEMBL) Submitted Name of Target Chain>
<NA>

> <UniProt (TrEMBL) Entry Name of Target Chain>
<NA>

> <UniProt (TrEMBL) Primary ID of Target Chain>
<NA>

> <UniProt (TrEMBL) Secondary ID(s) of Target Chain>
nan

> <UniProt (TrEMBL) Alternative ID(s) of Target Chain>
nan

> <pIC50>
0.585

> <Num_H_Donors_Lipinski>
2

> <Num_H_Acceptors_Lipinski>
9

> <Molecular_Weight>
423.50322

> <ALogP>
2.474

> <Num_RotatableBonds>
8

> <Molecular_PolarSurfaceArea>
116.25

> <Num_H_Acceptors>
6

> <Num_H_Donors>
2

> <Num_Rings>
3

> <Num_AromaticRings>
0

> <Molecular_FractionalPolarSurfaceArea>
0.285

> <Activity_Bin>
10

> <PLSTempModel>
5.77533832919938e-002

> <PLSTempModel_Residuals>
0.527246616708006

$$$$
Untitled_505
  SciTegic11182514132D

 16 17  0  0  0  0            999 V2000
   -0.7954   -0.3540    0.0000 N   0  0
   -0.0833    0.0583    0.0000 C   0  0
   -0.0833    0.8871    0.0000 C   0  0
   -1.5076    0.0583    0.0000 C   0  0
   -0.7996    1.2994    0.0000 C   0  0
   -1.5118    0.8829    0.0000 C   0  0
    1.3410    0.8954    0.0000 C   0  0
    0.6289    1.2994    0.0000 C   0  0
    0.6372   -0.3540    0.0000 O   0  0
    1.3493    0.0708    0.0000 O   0  0
    2.0532    1.3077    0.0000 N   0  0
    2.7736    0.8954    0.0000 O   0  0
   -2.2322   -0.3623    0.0000 C   0  0
   -2.2322    1.2952    0.0000 C   0  0
   -2.9444    0.8746    0.0000 C   0  0
   -2.9444    0.0500    0.0000 C   0  0
  2  1  1  0
  3  2  1  0
  4  1  1  0
  5  6  1  0
  6  4  2  0
  7  8  1  0
  8  3  1  0
  9  2  2  0
 10  7  2  0
 11  7  1  0
 12 11  1  0
 13  4  1  0
 14  6  1  0
 15 16  1  0
 16 13  2  0
  5  3  1  0
 15 14  2  0
M  END
> <Name>
Untitled_505

> <OBJECTID>
9223372389045370891

> <From>
www.bindingDB.org

> <BindingDB Reactant_set_id>
50259748

> <Ligand InChI>
InChI=1S/C11H12N2O3/c14-10(13-16)6-8-5-7-3-1-2-4-9(7)12-11(8)15/h1-4,8,16H,5-6H2,(H,12,15)(H,13,14)

> <Ligand InChI Key>
YTUWEPNPDLHRMK-UHFFFAOYSA-N

> <BindingDB MonomerID>
50141389

> <BindingDB Ligand Name>
CHEMBL37522::N-Hydroxy-2-(2-oxo-1,2,3,4-tetrahydro-quinolin-3-yl)-acetamide

> <Target Name>
Peptide deformylase

> <Target Source Organism According to Curator or DataSource>
Staphylococcus aureus (strain Mu50 / ATCC 700699)

> <Ki (nM)>
nan

> <IC50 (nM)>
73

> <Kd (nM)>
nan

> <EC50 (nM)>
nan

> <kon (M-1-s-1)>
nan

> <koff (s-1)>
nan

> <pH>
nan

> <Temp C>
nan

> <Curation/DataSource>
ChEMBL

> <Article DOI>
10.1016/j.bmcl.2004.01.014

> <BindingDB Entry DOI>
10.7270/Q2MS3S6G

> <PMID>
15006385

> <PubChem AID>
<NA>

> <Patent Number>
nan

> <Authors>
Molteni, V; He, X; Nabakka, J; Yang, K; Kreusch, A; Gordon, P; Bursulaya, B; Warner, I; Shin, T; Biorac, T; Ryder, NS; Goldberg, R; Doughty, J; He, Y

> <Date of publication>
3/9/2004

> <Date in BindingDB>
11/10/2009

> <Institution>
Genomics Institute of the Novartis Research Foundation

> <Link to Ligand in BindingDB>
http://www.bindingdb.org/bind/chemsearch/marvin/MolStructure.jsp?monomerid=50141389

> <Link to Ligand-Target Pair in BindingDB>
http://www.bindingdb.org/jsp/dbsearch/PrimarySearch_ki.jsp?energyterm=kJ/mole&tag=r21&monomerid=50141389&enzyme=Peptide+deformylase&column=ki&startPg=0&Increment=50&submit=Search

> <Ligand HET ID in PDB>
<NA>

> <PDB ID(s) for Ligand-Target Complex>
<NA>

> <PubChem CID of Ligand>
11264473

> <PubChem SID of Ligand>
104030848

> <ChEBI ID of Ligand>
nan

> <ChEMBL ID of Ligand>
CHEMBL37522

> <DrugBank ID of Ligand>
<NA>

> <IUPHAR_GRAC ID of Ligand>
nan

> <KEGG ID of Ligand>
<NA>

> <ZINC ID of Ligand>
ZINC29307054

> <Number of Protein Chains in Target (bigger than 1 implies a multichain complex)>
1

> <BindingDB Target Chain Sequence>
MLTMKDIIRDGHPTLRQKAAELELPLTKEEKETLIAMREFLVNSQDEEIAKRYGLRSGVGLAAPQINISKRMIAVLIPDDGSGKSYDYMLVNPKIVSHSVQEAYLPTGEGCLSVDDNVAGLVHRHNRITIKAKDIEGNDIQLRLKGYPAIVFQHEIDHLNGVMFYDHIDKNHPLQPHTDAVEV

> <PDB ID(s) of Target Chain>
1LM4,1LMH,1LQW,2AI9,6JFG,6JFO,6JFQ,6JFR,6JFS

> <UniProt (SwissProt) Recommended Name of Target Chain>
Peptide deformylase

> <UniProt (SwissProt) Entry Name of Target Chain>
DEF_STAAU

> <UniProt (SwissProt) Primary ID of Target Chain>
P68826

> <UniProt (SwissProt) Secondary ID(s) of Target Chain>
Q9F4L4

> <UniProt (SwissProt) Alternative ID(s) of Target Chain>
nan

> <UniProt (TrEMBL) Submitted Name of Target Chain>
<NA>

> <UniProt (TrEMBL) Entry Name of Target Chain>
<NA>

> <UniProt (TrEMBL) Primary ID of Target Chain>
<NA>

> <UniProt (TrEMBL) Secondary ID(s) of Target Chain>
nan

> <UniProt (TrEMBL) Alternative ID(s) of Target Chain>
nan

> <pIC50>
-1.8633

> <Num_H_Donors_Lipinski>
3

> <Num_H_Acceptors_Lipinski>
5

> <Molecular_Weight>
220.22457

> <ALogP>
0.301

> <Num_RotatableBonds>
2

> <Molecular_PolarSurfaceArea>
78.43

> <Num_H_Acceptors>
3

> <Num_H_Donors>
3

> <Num_Rings>
2

> <Num_AromaticRings>
1

> <Molecular_FractionalPolarSurfaceArea>
0.382

> <Activity_Bin>
4

> <PLSTempModel>
-1.99191013784168

> <PLSTempModel_Residuals>
0.128610137841677

$$$$
Untitled_566
  SciTegic11182514132D

 17 18  0  0  0  0            999 V2000
   -0.9317    0.6614    0.0000 C   0  0
   -0.9234   -0.1664    0.0000 C   0  0
   -1.6430    1.0732    0.0000 S   0  0
   -1.6430   -0.5782    0.0000 N   0  0
   -0.2204    1.0732    0.0000 C   0  0
    0.4992    0.6697    0.0000 N   0  0
   -2.3543   -0.1664    0.0000 C   0  0
   -2.3543    0.6572    0.0000 C   0  0
    1.2105    1.0815    0.0000 C   0  0
   -0.2079   -0.5782    0.0000 O   0  0
    1.2105    1.9051    0.0000 O   0  0
    0.5033   -0.1539    0.0000 O   0  0
    1.9259    0.6697    0.0000 C   0  0
   -3.0698   -0.5865    0.0000 C   0  0
   -3.0698    1.0690    0.0000 C   0  0
   -3.7811   -0.1747    0.0000 C   0  0
   -3.7811    0.6489    0.0000 C   0  0
  2  1  1  0
  3  1  1  0
  4  2  1  0
  5  1  1  0
  6  5  1  0
  7  8  2  0
  8  3  1  0
  9  6  1  0
 10  2  2  0
 11  9  2  0
 12  6  1  0
 13  9  1  0
 14  7  1  0
 15  8  1  0
 16 17  1  0
 17 15  2  0
  4  7  1  0
 14 16  2  0
M  END
> <Name>
Untitled_566

> <OBJECTID>
9223372444879945739

> <From>
www.bindingDB.org

> <BindingDB Reactant_set_id>
50259727

> <Ligand InChI>
InChI=1S/C11H12N2O3S/c1-7(14)13(16)6-10-11(15)12-8-4-2-3-5-9(8)17-10/h2-5,10,16H,6H2,1H3,(H,12,15)

> <Ligand InChI Key>
CFTNUCWMSHGEAX-UHFFFAOYSA-N

> <BindingDB MonomerID>
50141371

> <BindingDB Ligand Name>
CHEMBL36126::N-Hydroxy-N-(3-oxo-3,4-dihydro-2H-benzo[1,4]thiazin-2-ylmethyl)-acetamide

> <Target Name>
Peptide deformylase

> <Target Source Organism According to Curator or DataSource>
Staphylococcus aureus (strain Mu50 / ATCC 700699)

> <Ki (nM)>
nan

> <IC50 (nM)>
427

> <Kd (nM)>
nan

> <EC50 (nM)>
nan

> <kon (M-1-s-1)>
nan

> <koff (s-1)>
nan

> <pH>
nan

> <Temp C>
nan

> <Curation/DataSource>
ChEMBL

> <Article DOI>
10.1016/j.bmcl.2004.01.014

> <BindingDB Entry DOI>
10.7270/Q2MS3S6G

> <PMID>
15006385

> <PubChem AID>
<NA>

> <Patent Number>
nan

> <Authors>
Molteni, V; He, X; Nabakka, J; Yang, K; Kreusch, A; Gordon, P; Bursulaya, B; Warner, I; Shin, T; Biorac, T; Ryder, NS; Goldberg, R; Doughty, J; He, Y

> <Date of publication>
3/9/2004

> <Date in BindingDB>
11/10/2009

> <Institution>
Genomics Institute of the Novartis Research Foundation

> <Link to Ligand in BindingDB>
http://www.bindingdb.org/bind/chemsearch/marvin/MolStructure.jsp?monomerid=50141371

> <Link to Ligand-Target Pair in BindingDB>
http://www.bindingdb.org/jsp/dbsearch/PrimarySearch_ki.jsp?energyterm=kJ/mole&tag=r21&monomerid=50141371&enzyme=Peptide+deformylase&column=ki&startPg=0&Increment=50&submit=Search

> <Ligand HET ID in PDB>
<NA>

> <PDB ID(s) for Ligand-Target Complex>
<NA>

> <PubChem CID of Ligand>
44283303

> <PubChem SID of Ligand>
104030830

> <ChEBI ID of Ligand>
nan

> <ChEMBL ID of Ligand>
CHEMBL36126

> <DrugBank ID of Ligand>
<NA>

> <IUPHAR_GRAC ID of Ligand>
nan

> <KEGG ID of Ligand>
<NA>

> <ZINC ID of Ligand>
ZINC29239719

> <Number of Protein Chains in Target (bigger than 1 implies a multichain complex)>
1

> <BindingDB Target Chain Sequence>
MLTMKDIIRDGHPTLRQKAAELELPLTKEEKETLIAMREFLVNSQDEEIAKRYGLRSGVGLAAPQINISKRMIAVLIPDDGSGKSYDYMLVNPKIVSHSVQEAYLPTGEGCLSVDDNVAGLVHRHNRITIKAKDIEGNDIQLRLKGYPAIVFQHEIDHLNGVMFYDHIDKNHPLQPHTDAVEV

> <PDB ID(s) of Target Chain>
1LM4,1LMH,1LQW,2AI9,6JFG,6JFO,6JFQ,6JFR,6JFS

> <UniProt (SwissProt) Recommended Name of Target Chain>
Peptide deformylase

> <UniProt (SwissProt) Entry Name of Target Chain>
DEF_STAAU

> <UniProt (SwissProt) Primary ID of Target Chain>
P68826

> <UniProt (SwissProt) Secondary ID(s) of Target Chain>
Q9F4L4

> <UniProt (SwissProt) Alternative ID(s) of Target Chain>
nan

> <UniProt (TrEMBL) Submitted Name of Target Chain>
<NA>

> <UniProt (TrEMBL) Entry Name of Target Chain>
<NA>

> <UniProt (TrEMBL) Primary ID of Target Chain>
<NA>

> <UniProt (TrEMBL) Secondary ID(s) of Target Chain>
nan

> <UniProt (TrEMBL) Alternative ID(s) of Target Chain>
nan

> <pIC50>
-2.6304

> <Num_H_Donors_Lipinski>
2

> <Num_H_Acceptors_Lipinski>
5

> <Molecular_Weight>
252.28957

> <ALogP>
0.518

> <Num_RotatableBonds>
2

> <Molecular_PolarSurfaceArea>
94.94

> <Num_H_Acceptors>
4

> <Num_H_Donors>
2

> <Num_Rings>
2

> <Num_AromaticRings>
1

> <Molecular_FractionalPolarSurfaceArea>
0.407

> <Activity_Bin>
3

> <PLSTempModel>
-2.45294641950882

> <PLSTempModel_Residuals>
-0.17745358049118

$$$$
